REMARK  Name = DB12582
REMARK                            x       y       z     vdW  Elec       q    Type
REMARK                         _______ _______ _______ _____ _____    ______ ____
ROOT
ATOM      1  C   LIG    1        1.544   0.171   0.059  0.00  0.00    +0.001 C 
ATOM      2  C   LIG    1        2.291  -0.942  -0.083  0.00  0.00    +0.008 C 
ENDROOT
BRANCH   2   3
ATOM      3  C   LIG    1        3.766  -1.035  -0.032  0.00  0.00    -0.021 A 
ATOM      4  C   LIG    1        4.358  -2.315  -0.055  0.00  0.00    +0.012 A 
ATOM      5  C   LIG    1        5.748  -2.478   0.002  0.00  0.00    +0.050 A 
ATOM      6  C   LIG    1        6.527  -1.330   0.070  0.00  0.00    +0.166 A 
ATOM      7  O   LIG    1        7.879  -1.220   0.159  0.00  0.00    -0.453 OA
ATOM      8  C   LIG    1        8.156   0.147   0.018  0.00  0.00    +0.466 C 
ATOM      9  O   LIG    1        6.954   0.848   0.194  0.00  0.00    -0.453 OA
ATOM     10  C   LIG    1        5.970  -0.084   0.092  0.00  0.00    +0.167 A 
ATOM     11  C   LIG    1        4.593   0.105   0.048  0.00  0.00    +0.057 A 
ENDBRANCH   2   3
BRANCH   1  13
ATOM     12  C   LIG    1       -0.648   1.275   0.151  0.00  0.00    +0.067 C 
ATOM     13  C   LIG    1        0.095   0.161  -0.011  0.00  0.00    +0.005 C 
BRANCH  12  18
ATOM     14  C   LIG    1       -3.708   4.460   1.759  0.00  0.00    +0.003 C 
ATOM     15  C   LIG    1       -2.231   4.393   1.310  0.00  0.00    +0.019 C 
ATOM     16  C   LIG    1       -2.093   3.788  -0.105  0.00  0.00    +0.108 C 
ATOM     17  N   LIG    1       -2.742   2.462  -0.070  0.00  0.00    -0.298 N 
ATOM     18  C   LIG    1       -2.101   1.267   0.096  0.00  0.00    +0.239 C 
ATOM     19  O   LIG    1       -2.725   0.206   0.195  0.00  0.00    -0.271 OA
ATOM     20  C   LIG    1       -4.204   2.549   0.116  0.00  0.00    +0.108 C 
ATOM     21  C   LIG    1       -4.439   3.117   1.537  0.00  0.00    +0.019 C 
ENDBRANCH  12  18
ENDBRANCH   1  13
TORSDOF 3
