REMARK  Name = DB12949
REMARK                            x       y       z     vdW  Elec       q    Type
REMARK                         _______ _______ _______ _____ _____    ______ ____
ROOT
ATOM      1  C   LIG    1       -5.062  -1.143   1.056  0.00  0.00    +0.025 C 
ATOM      2  C   LIG    1       -4.512  -0.310  -0.128  0.00  0.00    +0.069 C 
ATOM      3  C   LIG    1       -5.343  -0.558  -1.410  0.00  0.00    +0.025 C 
ATOM      4  C   LIG    1       -3.056  -0.738  -0.388  0.00  0.00    +0.237 C 
ATOM      5  O   LIG    1       -2.742  -1.882  -0.734  0.00  0.00    -0.274 OA
ATOM      6  N   LIG    1       -2.236   0.338  -0.132  0.00  0.00    -0.193 N 
ATOM      7  C   LIG    1       -0.855   0.340  -0.136  0.00  0.00    +0.313 C 
ATOM      8  N   LIG    1       -0.222  -0.715  -0.704  0.00  0.00    -0.298 N 
ATOM      9  H   LIG    1       -0.793  -1.432  -1.130  0.00  0.00    +0.150 HD
ATOM     10  O   LIG    1       -0.189   1.253   0.356  0.00  0.00    -0.252 OA
ATOM     11  C   LIG    1       -3.027   1.479   0.178  0.00  0.00    +0.052 A 
ATOM     12  C   LIG    1       -2.661   2.816   0.425  0.00  0.00    +0.062 A 
ATOM     13  C   LIG    1       -3.638   3.769   0.720  0.00  0.00    +0.125 A 
ATOM     14  F   LIG    1       -3.279   5.050   0.961  0.00  0.00    -0.205 F 
ATOM     15  C   LIG    1       -4.982   3.403   0.764  0.00  0.00    +0.039 A 
ATOM     16  C   LIG    1       -5.352   2.085   0.505  0.00  0.00    +0.009 A 
ATOM     17  C   LIG    1       -4.371   1.135   0.209  0.00  0.00    -0.011 A 
ENDROOT
BRANCH   8  18
ATOM     18  C   LIG    1        1.225  -0.932  -0.762  0.00  0.00    +0.109 C 
BRANCH  18  19
ATOM     19  C   LIG    1        1.758  -1.859   0.357  0.00  0.00    +0.003 C 
ATOM     20  C   LIG    1        3.214  -2.287   0.080  0.00  0.00    -0.014 C 
ATOM     21  C   LIG    1        3.711  -3.298   1.130  0.00  0.00    -0.078 C 
ATOM     22  N   LIG    1        3.612  -2.646   2.532  0.00  0.00    +0.382 N 
ATOM     23  H   LIG    1        4.189  -1.816   2.526  0.00  0.00    -0.082 HD
ATOM     24  C   LIG    1        2.171  -2.178   2.852  0.00  0.00    -0.078 C 
ATOM     25  C   LIG    1        1.713  -1.201   1.754  0.00  0.00    -0.014 C 
BRANCH  22  26
ATOM     26  C   LIG    1        4.157  -3.585   3.643  0.00  0.00    -0.044 C 
BRANCH  26  27
ATOM     27  C   LIG    1        5.560  -3.135   4.123  0.00  0.00    +0.056 C 
ATOM     28  C   LIG    1        6.667  -3.107   3.021  0.00  0.00    +0.061 C 
ATOM     29  C   LIG    1        8.127  -3.166   3.511  0.00  0.00    +0.162 C 
ATOM     30  O   LIG    1        8.281  -4.196   4.475  0.00  0.00    -0.380 OA
ATOM     31  C   LIG    1        7.552  -3.930   5.663  0.00  0.00    +0.162 C 
ATOM     32  C   LIG    1        6.037  -3.938   5.373  0.00  0.00    +0.061 C 
BRANCH  27  33
ATOM     33  O   LIG    1        5.606  -1.805   4.620  0.00  0.00    -0.390 OA
ATOM     34  H   LIG    1        6.482  -1.642   4.976  0.00  0.00    +0.210 HD
ENDBRANCH  27  33
ENDBRANCH  26  27
ENDBRANCH  22  26
ENDBRANCH  18  19
ENDBRANCH   8  18
TORSDOF 5
