REMARK  Name = DB12178
REMARK                            x       y       z     vdW  Elec       q    Type
REMARK                         _______ _______ _______ _____ _____    ______ ____
ROOT
ATOM      1  C   LIG    1        1.400   0.119   0.061  0.00  0.00    +0.107 C 
ENDROOT
BRANCH   1   2
ATOM      2  N   LIG    1        1.646   1.344  -0.715  0.00  0.00    -0.308 N 
ATOM      3  H   LIG    1        1.115   2.156  -0.435  0.00  0.00    +0.149 HD
ATOM      4  C   LIG    1        2.525   1.468  -1.726  0.00  0.00    +0.234 C 
ATOM      5  O   LIG    1        3.207   0.540  -2.163  0.00  0.00    -0.274 OA
BRANCH   4   6
ATOM      6  C   LIG    1        2.653   2.875  -2.353  0.00  0.00    +0.168 C 
BRANCH   6   7
ATOM      7  N   LIG    1        4.035   3.357  -2.222  0.00  0.00    -0.298 N 
ATOM      8  H   LIG    1        4.614   3.247  -3.043  0.00  0.00    +0.150 HD
ATOM      9  C   LIG    1        4.590   3.866  -1.103  0.00  0.00    +0.263 C 
ATOM     10  O   LIG    1        3.949   4.034  -0.062  0.00  0.00    -0.269 OA
BRANCH   9  11
ATOM     11  C   LIG    1        6.061   4.224  -1.171  0.00  0.00    +0.126 A 
ATOM     12  N   LIG    1        6.737   3.942  -2.322  0.00  0.00    -0.242 NA
ATOM     13  C   LIG    1        8.063   4.239  -2.408  0.00  0.00    +0.072 A 
ATOM     14  C   LIG    1        8.756   3.941  -3.606  0.00  0.00    +0.028 A 
ATOM     15  C   LIG    1       10.113   4.236  -3.719  0.00  0.00    +0.002 A 
ATOM     16  C   LIG    1       10.802   4.824  -2.663  0.00  0.00    +0.001 A 
ATOM     17  C   LIG    1       10.148   5.129  -1.471  0.00  0.00    +0.010 A 
ATOM     18  C   LIG    1        8.769   4.841  -1.324  0.00  0.00    +0.000 A 
ATOM     19  C   LIG    1        8.049   5.125  -0.139  0.00  0.00    +0.012 A 
ATOM     20  C   LIG    1        6.694   4.812  -0.070  0.00  0.00    +0.033 A 
ENDBRANCH   9  11
ENDBRANCH   6   7
BRANCH   6  21
ATOM     21  C   LIG    1        2.176   2.923  -3.838  0.00  0.00    +0.127 C 
BRANCH  21  22
ATOM     22  C   LIG    1        3.101   2.288  -4.894  0.00  0.00    +0.213 C 
ATOM     23  N   LIG    1        2.684   1.157  -5.469  0.00  0.00    -0.329 N 
ATOM     24  H   LIG    1        3.254   0.707  -6.171  0.00  0.00    +0.145 HD
ATOM     25  H   LIG    1        1.805   0.740  -5.203  0.00  0.00    +0.145 HD
ATOM     26  O   LIG    1        4.166   2.822  -5.196  0.00  0.00    -0.276 OA
ENDBRANCH  21  22
ENDBRANCH   6  21
ENDBRANCH   4   6
ENDBRANCH   1   2
BRANCH   1  27
ATOM     27  C   LIG    1       -0.108   0.006   0.415  0.00  0.00    +0.152 C 
BRANCH  27  28
ATOM     28  O   LIG    1       -0.495   0.994   1.356  0.00  0.00    -0.388 OA
ATOM     29  H   LIG    1       -1.438   0.911   1.516  0.00  0.00    +0.210 HD
ENDBRANCH  27  28
BRANCH  27  30
ATOM     30  C   LIG    1       -0.525  -1.405   0.897  0.00  0.00    +0.142 C 
BRANCH  30  31
ATOM     31  N   LIG    1       -1.987  -1.625   0.936  0.00  0.00    -0.283 N 
ATOM     32  C   LIG    1       -2.791  -1.385   2.012  0.00  0.00    +0.303 C 
ATOM     33  N   LIG    1       -2.149  -1.034   3.148  0.00  0.00    -0.294 N 
ATOM     34  H   LIG    1       -1.141  -0.997   3.106  0.00  0.00    +0.151 HD
ATOM     35  O   LIG    1       -4.017  -1.496   1.960  0.00  0.00    -0.253 OA
BRANCH  33  36
ATOM     36  C   LIG    1       -2.716  -0.660   4.455  0.00  0.00    +0.028 C 
ATOM     37  C   LIG    1       -3.604   0.603   4.340  0.00  0.00    +0.031 C 
ATOM     38  C   LIG    1       -3.527  -1.825   5.074  0.00  0.00    +0.031 C 
ATOM     39  C   LIG    1       -1.532  -0.338   5.393  0.00  0.00    +0.031 C 
ENDBRANCH  33  36
BRANCH  31  40
ATOM     40  C   LIG    1       -2.560  -2.035  -0.360  0.00  0.00    +0.112 C 
BRANCH  40  42
ATOM     41  C   LIG    1       -1.914  -4.511  -0.078  0.00  0.00    +0.009 C 
ATOM     42  C   LIG    1       -3.031  -3.509  -0.428  0.00  0.00    +0.000 C 
ATOM     43  C   LIG    1       -3.633  -3.817  -1.809  0.00  0.00    +0.009 C 
ENDBRANCH  40  42
ENDBRANCH  31  40
ENDBRANCH  30  31
ENDBRANCH  27  30
ENDBRANCH   1  27
BRANCH   1  44
ATOM     44  C   LIG    1        2.332   0.007   1.304  0.00  0.00    +0.060 C 
BRANCH  44  45
ATOM     45  C   LIG    1        3.821  -0.058   0.980  0.00  0.00    -0.046 A 
ATOM     46  C   LIG    1        4.359  -1.211   0.399  0.00  0.00    +0.004 A 
ATOM     47  C   LIG    1        5.711  -1.258   0.071  0.00  0.00    +0.000 A 
ATOM     48  C   LIG    1        6.523  -0.156   0.330  0.00  0.00    +0.000 A 
ATOM     49  C   LIG    1        5.997   0.991   0.920  0.00  0.00    +0.000 A 
ATOM     50  C   LIG    1        4.645   1.038   1.248  0.00  0.00    +0.004 A 
ENDBRANCH  44  45
ENDBRANCH   1  44
TORSDOF 15
