REMARK  Name = DB12733
REMARK                            x       y       z     vdW  Elec       q    Type
REMARK                         _______ _______ _______ _____ _____    ______ ____
ROOT
ATOM      1  C   LIG    1        2.019   0.493   1.342  0.00  0.00    +0.069 C 
ENDROOT
BRANCH   1   2
ATOM      2  C   LIG    1        3.536   0.518   1.326  0.00  0.00    +0.061 A 
ATOM      3  N   LIG    1        4.177   1.417   0.601  0.00  0.00    -0.233 NA
ATOM      4  C   LIG    1        5.497   1.175   0.803  0.00  0.00    +0.138 A 
ATOM      5  C   LIG    1        6.639   1.817   0.285  0.00  0.00    +0.049 A 
ATOM      6  C   LIG    1        7.904   1.359   0.665  0.00  0.00    +0.043 A 
ATOM      7  C   LIG    1        8.048   0.284   1.541  0.00  0.00    +0.140 A 
ATOM      8  F   LIG    1        9.282  -0.142   1.893  0.00  0.00    -0.204 F 
ATOM      9  C   LIG    1        6.920  -0.351   2.053  0.00  0.00    +0.131 A 
ATOM     10  N   LIG    1        5.678   0.096   1.683  0.00  0.00    -0.304 N 
ATOM     11  C   LIG    1        4.416  -0.318   2.016  0.00  0.00    +0.116 A 
ENDBRANCH   1   2
BRANCH   1  12
ATOM     12  C   LIG    1        1.410   0.255  -0.056  0.00  0.00    +0.095 C 
BRANCH  12  14
ATOM     13  C   LIG    1       -1.283   0.148  -0.049  0.00  0.00    -0.046 C 
ATOM     14  C   LIG    1       -0.063   0.196  -0.059  0.00  0.00    -0.095 C 
BRANCH  13  17
ATOM     15  C   LIG    1       -4.872   0.872   0.754  0.00  0.00    +0.004 A 
ATOM     16  C   LIG    1       -3.478   0.967   0.784  0.00  0.00    +0.037 A 
ATOM     17  C   LIG    1       -2.737   0.104  -0.029  0.00  0.00    +0.113 A 
ATOM     18  N   LIG    1       -3.311  -0.820  -0.843  0.00  0.00    -0.247 NA
ATOM     19  C   LIG    1       -4.667  -0.895  -0.857  0.00  0.00    +0.112 A 
ATOM     20  C   LIG    1       -5.481  -0.071  -0.077  0.00  0.00    +0.020 A 
ENDBRANCH  13  17
ENDBRANCH  12  14
ENDBRANCH   1  12
TORSDOF 4
