REMARK  Name = DB12140
REMARK                            x       y       z     vdW  Elec       q    Type
REMARK                         _______ _______ _______ _____ _____    ______ ____
ROOT
ATOM      1  C   UNK A  0       -2.749   2.382  -0.025  0.00  0.00    +0.085 A 
ATOM      2  N   UNK A  0       -2.075   1.208  -0.177  0.00  0.00    -0.214 NA
ATOM      3  C   UNK A  0       -0.719   1.259  -0.184  0.00  0.00    +0.218 A 
ATOM      4  N   UNK A  0        0.013   2.397  -0.057  0.00  0.00    -0.196 NA
ATOM      5  C   UNK A  0       -0.663   3.571   0.091  0.00  0.00    +0.154 A 
ATOM      6  N   UNK A  0        0.077   4.791   0.240  0.00  0.00    -0.255 N 
ATOM      7  C   UNK A  0       -0.494   6.037   0.391  0.00  0.00    +0.257 A 
ATOM      8  O   UNK A  0        0.126   7.091   0.550  0.00  0.00    -0.267 OA
ATOM      9  C   UNK A  0       -1.951   6.036   0.361  0.00  0.00    +0.071 A 
ATOM     10  C   UNK A  0       -2.703   4.923   0.239  0.00  0.00    +0.019 A 
ATOM     11  C   UNK A  0       -2.068   3.604   0.105  0.00  0.00    +0.044 A 
ENDROOT
BRANCH   1  14
ATOM     12  C   UNK A  0       -4.314   2.769   2.506  0.00  0.00    +0.044 C 
ATOM     13  C   UNK A  0       -4.984   2.464   1.171  0.00  0.00    -0.039 A 
ATOM     14  C   UNK A  0       -4.231   2.258  -0.003  0.00  0.00    +0.004 A 
ATOM     15  C   UNK A  0       -4.903   1.940  -1.191  0.00  0.00    +0.013 A 
ATOM     16  C   UNK A  0       -6.292   1.830  -1.221  0.00  0.00    +0.039 A 
ATOM     17  C   UNK A  0       -7.030   2.035  -0.058  0.00  0.00    +0.124 A 
ATOM     18  F   UNK A  0       -8.377   1.925  -0.083  0.00  0.00    -0.205 F 
ATOM     19  C   UNK A  0       -6.378   2.348   1.133  0.00  0.00    +0.042 A 
ENDBRANCH   1  14
BRANCH   6  20
ATOM     20  C   UNK A  0        1.491   4.718   0.268  0.00  0.00    +0.122 A 
ATOM     21  C   UNK A  0        2.160   4.482   1.479  0.00  0.00    +0.150 A 
ATOM     22  F   UNK A  0        1.468   4.347   2.636  0.00  0.00    -0.203 F 
ATOM     23  C   UNK A  0        3.551   4.374   1.497  0.00  0.00    +0.040 A 
ATOM     24  C   UNK A  0        4.279   4.498   0.313  0.00  0.00    +0.006 A 
ATOM     25  C   UNK A  0        3.618   4.731  -0.893  0.00  0.00    +0.040 A 
ATOM     26  C   UNK A  0        2.227   4.839  -0.921  0.00  0.00    +0.150 A 
ATOM     27  F   UNK A  0        1.601   5.053  -2.102  0.00  0.00    -0.203 F 
ENDBRANCH   6  20
BRANCH   3  28
ATOM     28  N   SER A  1       -0.062   0.026  -0.333  0.00  0.00    -0.306 N 
ATOM     29  H   SER A  1       -0.618  -0.808  -0.456  0.00  0.00    +0.149 HD
BRANCH  28  30
ATOM     30  CA  SER A  1        1.400  -0.109  -0.353  0.00  0.00    +0.124 C 
BRANCH  30  31
ATOM     31  C   SER A  1        2.061   0.125   1.028  0.00  0.00    +0.180 C 
BRANCH  31  32
ATOM     32  O   SER A  1        3.416   0.499   0.872  0.00  0.00    -0.393 OA
ATOM     33  H   SER A  1        3.788   0.664   1.741  0.00  0.00    +0.209 HD
ENDBRANCH  31  32
ENDBRANCH  30  31
BRANCH  30  34
ATOM     34  CB  SER A  1        1.906  -1.400  -1.044  0.00  0.00    +0.180 C 
BRANCH  34  35
ATOM     35  OG  SER A  1        1.162  -1.749  -2.197  0.00  0.00    -0.393 OA
ATOM     36  H   SER A  1        1.546  -2.542  -2.580  0.00  0.00    +0.209 HD
ENDBRANCH  34  35
ENDBRANCH  30  34
ENDBRANCH  28  30
ENDBRANCH   3  28
TORSDOF 8
