REMARK  Name = DB12322
REMARK                            x       y       z     vdW  Elec       q    Type
REMARK                         _______ _______ _______ _____ _____    ______ ____
ROOT
ATOM      1  C   LIG    1        0.176  -0.628   2.349  0.00  0.00    +0.012 C 
ATOM      2  C   LIG    1       -0.785  -0.777   1.144  0.00  0.00    +0.042 C 
ATOM      3  C   LIG    1       -0.538   0.156  -0.101  0.00  0.00    +0.217 C 
ATOM      4  C   LIG    1       -1.237  -0.666  -1.273  0.00  0.00    +0.024 C 
ATOM      5  C   LIG    1       -2.805  -0.619  -1.169  0.00  0.00    +0.016 C 
ATOM      6  C   LIG    1       -0.790  -0.356  -2.736  0.00  0.00    +0.046 C 
ATOM      7  C   LIG    1       -1.274  -1.403  -3.782  0.00  0.00    +0.154 C 
ATOM      8  C   LIG    1       -0.862  -2.873  -3.385  0.00  0.00    +0.153 C 
ATOM      9  F   LIG    1        0.476  -2.854  -3.478  0.00  0.00    -0.238 F 
ATOM     10  C   LIG    1       -1.335  -4.027  -4.367  0.00  0.00    +0.047 C 
ATOM     11  C   LIG    1       -2.876  -4.215  -4.455  0.00  0.00    +0.023 C 
ATOM     12  C   LIG    1       -0.851  -3.778  -5.807  0.00  0.00    -0.009 C 
ATOM     13  C   LIG    1       -0.053  -4.598  -6.519  0.00  0.00    +0.047 C 
ATOM     14  C   LIG    1        0.475  -5.860  -6.012  0.00  0.00    +0.179 C 
ATOM     15  O   LIG    1        1.190  -6.605  -6.678  0.00  0.00    -0.288 OA
ATOM     16  C   LIG    1        0.078  -6.151  -4.634  0.00  0.00    +0.054 C 
ATOM     17  C   LIG    1       -0.721  -5.370  -3.862  0.00  0.00    -0.020 C 
ATOM     18  C   LIG    1       -1.083  -5.715  -2.409  0.00  0.00    +0.194 C 
ATOM     19  F   LIG    1       -0.502  -6.859  -2.040  0.00  0.00    -0.241 F 
ATOM     20  C   LIG    1       -0.595  -4.584  -1.488  0.00  0.00    +0.048 C 
ATOM     21  C   LIG    1       -1.179  -3.206  -1.879  0.00  0.00    +0.037 C 
ATOM     22  C   LIG    1       -0.670  -2.072  -0.939  0.00  0.00    +0.006 C 
ATOM     23  C   LIG    1       -0.832  -2.221   0.582  0.00  0.00    +0.012 C 
ENDROOT
BRANCH   3  24
ATOM     24  C   LIG    1       -1.081   1.604   0.199  0.00  0.00    +0.353 C 
ATOM     25  O   LIG    1       -2.090   2.061  -0.340  0.00  0.00    -0.246 OA
BRANCH  24  26
ATOM     26  O   LIG    1       -0.298   2.300   1.061  0.00  0.00    -0.447 OA
BRANCH  26  27
ATOM     27  C   LIG    1       -0.597   3.645   1.403  0.00  0.00    +0.350 C 
BRANCH  27  28
ATOM     28  C   LIG    1        0.511   4.277   2.133  0.00  0.00    +0.104 C 
ATOM     29  N   LIG    1        1.385   4.774   2.707  0.00  0.00    -0.193 NA
ENDBRANCH  27  28
ENDBRANCH  26  27
ENDBRANCH  24  26
ENDBRANCH   3  24
BRANCH   7  30
ATOM     30  O   LIG    1       -2.647  -1.232  -4.073  0.00  0.00    -0.389 OA
ATOM     31  H   LIG    1       -2.883  -1.825  -4.789  0.00  0.00    +0.210 HD
ENDBRANCH   7  30
BRANCH   3  32
ATOM     32  O   LIG    1        0.917   0.233  -0.231  0.00  0.00    -0.445 OA
BRANCH  32  33
ATOM     33  C   LIG    1        1.654   1.071  -1.031  0.00  0.00    +0.312 C 
ATOM     34  O   LIG    1        1.191   1.922  -1.790  0.00  0.00    -0.250 OA
BRANCH  33  35
ATOM     35  C   LIG    1        3.163   0.807  -0.857  0.00  0.00    +0.110 C 
ATOM     36  C   LIG    1        4.170   0.919  -2.022  0.00  0.00    -0.016 C 
ATOM     37  C   LIG    1        3.736   1.338  -3.450  0.00  0.00    +0.012 C 
ATOM     38  C   LIG    1        5.230  -0.203  -2.095  0.00  0.00    +0.012 C 
ATOM     39  C   LIG    1        4.220   1.932  -0.904  0.00  0.00    -0.016 C 
ATOM     40  C   LIG    1        5.331   1.847   0.165  0.00  0.00    +0.012 C 
ATOM     41  C   LIG    1        3.835   3.412  -1.160  0.00  0.00    +0.012 C 
ENDBRANCH  33  35
ENDBRANCH  32  33
ENDBRANCH   3  32
TORSDOF 8
