REMARK  Name = DB12187
REMARK                            x       y       z     vdW  Elec       q    Type
REMARK                         _______ _______ _______ _____ _____    ______ ____
ROOT
ATOM      1  C   LIG    1       -0.914   1.119   0.141  0.00  0.00    +0.202 A 
ATOM      2  N   LIG    1       -0.072   0.029   0.018  0.00  0.00    -0.308 N 
ATOM      3  C   LIG    1       -0.904  -1.074   0.064  0.00  0.00    +0.168 A 
ATOM      4  N   LIG    1       -0.594  -2.375   0.014  0.00  0.00    -0.195 NA
ATOM      5  C   LIG    1       -1.682  -3.189   0.078  0.00  0.00    +0.216 A 
ATOM      6  N   LIG    1       -2.983  -2.815   0.182  0.00  0.00    -0.198 NA
ATOM      7  C   LIG    1       -3.265  -1.480   0.230  0.00  0.00    +0.152 A 
ATOM      8  C   LIG    1       -2.213  -0.546   0.178  0.00  0.00    +0.148 A 
ATOM      9  N   LIG    1       -2.188   0.824   0.221  0.00  0.00    -0.231 NA
ENDROOT
BRANCH   2  10
ATOM     10  C   LIG    1        1.394   0.022  -0.052  0.00  0.00    +0.113 C 
ATOM     11  C   LIG    1        1.996   1.307  -0.589  0.00  0.00    -0.006 C 
ATOM     12  C   LIG    1        3.075   1.675   0.123  0.00  0.00    -0.022 C 
ATOM     13  C   LIG    1        3.320   0.743   1.298  0.00  0.00    +0.051 C 
ATOM     14  C   LIG    1        2.044  -0.108   1.327  0.00  0.00    +0.040 C 
BRANCH  13  15
ATOM     15  C   LIG    1        3.611   1.489   2.618  0.00  0.00    +0.239 C 
BRANCH  15  16
ATOM     16  O   LIG    1        2.606   2.455   2.913  0.00  0.00    -0.462 OA
BRANCH  16  17
ATOM     17  C   LIG    1        2.696   3.233   4.010  0.00  0.00    +0.333 C 
ATOM     18  O   LIG    1        3.607   3.195   4.844  0.00  0.00    -0.248 OA
BRANCH  17  19
ATOM     19  C   LIG    1        1.507   4.199   4.108  0.00  0.00    +0.276 C 
BRANCH  19  20
ATOM     20  O   LIG    1        1.619   5.017   5.258  0.00  0.00    -0.384 OA
ATOM     21  H   LIG    1        0.882   5.633   5.271  0.00  0.00    +0.210 HD
ENDBRANCH  19  20
ENDBRANCH  17  19
ENDBRANCH  16  17
ENDBRANCH  15  16
ENDBRANCH  13  15
ENDBRANCH   2  10
BRANCH   5  22
ATOM     22  N   LIG    1       -1.433  -4.556   0.034  0.00  0.00    -0.327 N 
ATOM     23  H   LIG    1       -2.209  -5.200   0.083  0.00  0.00    +0.145 HD
ATOM     24  H   LIG    1       -0.481  -4.883  -0.039  0.00  0.00    +0.145 HD
ENDBRANCH   5  22
BRANCH   7  25
ATOM     25  N   LIG    1       -4.593  -1.036   0.345  0.00  0.00    -0.324 N 
ATOM     26  H   LIG    1       -4.740  -0.056   0.152  0.00  0.00    +0.148 HD
BRANCH  25  27
ATOM     27  C   LIG    1       -5.696  -1.947   0.066  0.00  0.00    +0.072 C 
ATOM     28  C   LIG    1       -7.079  -1.352  -0.002  0.00  0.00    +0.024 C 
ATOM     29  C   LIG    1       -6.385  -1.819  -1.269  0.00  0.00    +0.024 C 
ENDBRANCH  25  27
ENDBRANCH   7  25
TORSDOF 9
