REMARK  Name = DB12436
REMARK                            x       y       z     vdW  Elec       q    Type
REMARK                         _______ _______ _______ _____ _____    ______ ____
ROOT
ATOM      1  C   LIG    1       -0.317   1.506   0.053  0.00  0.00    +0.125 A 
ATOM      2  C   LIG    1        0.112   0.167   0.048  0.00  0.00    +0.010 A 
ATOM      3  C   LIG    1       -0.817  -0.870   0.181  0.00  0.00    +0.036 A 
ATOM      4  C   LIG    1       -2.180  -0.591   0.309  0.00  0.00    +0.070 A 
ATOM      5  C   LIG    1       -2.614   0.738   0.302  0.00  0.00    +0.031 A 
ATOM      6  C   LIG    1       -1.691   1.775   0.179  0.00  0.00    +0.048 A 
ENDROOT
BRANCH   4   7
ATOM      7  N   LIG    1       -3.115  -1.640   0.416  0.00  0.00    -0.189 N 
ATOM      8  N   LIG    1       -4.173  -1.689  -0.406  0.00  0.00    -0.039 NA
ATOM      9  N   LIG    1       -4.845  -2.845  -0.066  0.00  0.00    -0.022 NA
ATOM     10  N   LIG    1       -4.184  -3.489   0.972  0.00  0.00    -0.104 NA
ATOM     11  C   LIG    1       -3.150  -2.734   1.265  0.00  0.00    +0.260 A 
BRANCH  11  12
ATOM     12  C   LIG    1       -2.147  -3.046   2.366  0.00  0.00    +0.454 C 
ATOM     13  F   LIG    1       -1.781  -1.945   3.020  0.00  0.00    -0.163 F 
ATOM     14  F   LIG    1       -1.049  -3.615   1.871  0.00  0.00    -0.163 F 
ATOM     15  F   LIG    1       -2.656  -3.883   3.270  0.00  0.00    -0.163 F 
ENDBRANCH  11  12
ENDBRANCH   4   7
BRANCH   1  17
ATOM     16  C   LIG    1        0.258   3.858  -0.072  0.00  0.00    +0.277 C 
ATOM     17  O   LIG    1        0.649   2.490  -0.064  0.00  0.00    -0.495 OA
ENDBRANCH   1  17
BRANCH   2  18
ATOM     18  C   LIG    1        1.592  -0.183  -0.079  0.00  0.00    +0.120 C 
BRANCH  18  19
ATOM     19  N   LIG    1        2.408   0.204   1.070  0.00  0.00    -0.310 NA
ATOM     20  H   LIG    1        2.417   1.210   1.176  0.00  0.00    +0.122 HD
BRANCH  19  21
ATOM     21  C   LIG    1        2.127  -0.471   2.337  0.00  0.00    +0.044 C 
ATOM     22  C   LIG    1        0.946   0.129   3.185  0.00  0.00    -0.024 C 
ATOM     23  N   LIG    1        0.862  -0.563   4.563  0.00  0.00    +0.385 N 
ATOM     24  H   LIG    1        0.188  -0.054   5.118  0.00  0.00    -0.085 HD
ATOM     25  H   LIG    1        0.473  -1.489   4.454  0.00  0.00    -0.085 HD
ATOM     26  C   LIG    1        2.186  -0.602   5.340  0.00  0.00    -0.082 C 
ATOM     27  C   LIG    1        3.212  -1.370   4.498  0.00  0.00    -0.018 C 
ATOM     28  C   LIG    1        3.442  -0.714   3.127  0.00  0.00    +0.015 C 
BRANCH  22  29
ATOM     29  C   LIG    1        0.868   1.652   3.395  0.00  0.00    -0.060 A 
ATOM     30  C   LIG    1       -0.391   2.231   3.602  0.00  0.00    +0.002 A 
ATOM     31  C   LIG    1       -0.518   3.605   3.781  0.00  0.00    +0.000 A 
ATOM     32  C   LIG    1        0.617   4.411   3.746  0.00  0.00    +0.000 A 
ATOM     33  C   LIG    1        1.873   3.853   3.532  0.00  0.00    +0.000 A 
ATOM     34  C   LIG    1        1.999   2.477   3.355  0.00  0.00    +0.002 A 
ENDBRANCH  22  29
ENDBRANCH  19  21
ENDBRANCH  18  19
ENDBRANCH   2  18
TORSDOF 7
