REMARK  Name = DB12207
REMARK                            x       y       z     vdW  Elec       q    Type
REMARK                         _______ _______ _______ _____ _____    ______ ____
ROOT
ATOM      1  N   LIG    1        1.334   0.239  -0.212  0.00  0.00    -0.227 N 
ATOM      2  N   LIG    1        2.355   1.092  -0.076  0.00  0.00    -0.145 NA
ATOM      3  C   LIG    1        3.197   0.429   0.697  0.00  0.00    +0.182 A 
ATOM      4  N   LIG    1        2.813  -0.798   1.036  0.00  0.00    -0.214 NA
ATOM      5  C   LIG    1        1.649  -0.912   0.452  0.00  0.00    +0.225 A 
ENDROOT
BRANCH   3   6
ATOM      6  C   LIG    1        4.499   1.025   1.160  0.00  0.00    +0.022 A 
ATOM      7  C   LIG    1        5.409   0.267   1.911  0.00  0.00    +0.024 A 
ATOM      8  C   LIG    1        6.619   0.811   2.353  0.00  0.00    +0.056 A 
ATOM      9  C   LIG    1        6.924   2.139   2.036  0.00  0.00    +0.024 A 
ATOM     10  C   LIG    1        6.036   2.919   1.287  0.00  0.00    +0.056 A 
ATOM     11  C   LIG    1        4.830   2.353   0.857  0.00  0.00    +0.024 A 
BRANCH   8  12
ATOM     12  C   LIG    1        7.577  -0.052   3.172  0.00  0.00    +0.417 C 
ATOM     13  F   LIG    1        6.954  -0.511   4.259  0.00  0.00    -0.166 F 
ATOM     14  F   LIG    1        8.659   0.620   3.569  0.00  0.00    -0.166 F 
ATOM     15  F   LIG    1        7.979  -1.090   2.438  0.00  0.00    -0.166 F 
ENDBRANCH   8  12
BRANCH  10  16
ATOM     16  C   LIG    1        6.382   4.367   0.945  0.00  0.00    +0.417 C 
ATOM     17  F   LIG    1        5.977   5.155   1.941  0.00  0.00    -0.166 F 
ATOM     18  F   LIG    1        5.783   4.765  -0.179  0.00  0.00    -0.166 F 
ATOM     19  F   LIG    1        7.698   4.527   0.787  0.00  0.00    -0.166 F 
ENDBRANCH  10  16
ENDBRANCH   3   6
BRANCH   1  21
ATOM     20  C   LIG    1       -0.445   1.657  -1.277  0.00  0.00    +0.088 C 
ATOM     21  C   LIG    1        0.192   0.492  -0.999  0.00  0.00    +0.119 C 
BRANCH  20  24
ATOM     22  N   LIG    1       -0.606   3.961  -1.558  0.00  0.00    -0.232 N 
ATOM     23  H   LIG    1       -1.158   3.784  -2.385  0.00  0.00    +0.173 HD
ATOM     24  C   LIG    1       -0.138   2.976  -0.763  0.00  0.00    +0.254 C 
ATOM     25  O   LIG    1        0.440   3.175   0.309  0.00  0.00    -0.269 OA
BRANCH  22  26
ATOM     26  N   LIG    1       -0.669   5.300  -1.119  0.00  0.00    -0.248 N 
ATOM     27  H   LIG    1        0.213   5.769  -1.269  0.00  0.00    +0.172 HD
BRANCH  26  30
ATOM     28  C   LIG    1       -2.070   7.362   1.602  0.00  0.00    +0.005 A 
ATOM     29  C   LIG    1       -1.213   6.926   0.589  0.00  0.00    +0.045 A 
ATOM     30  C   LIG    1       -1.519   5.744  -0.093  0.00  0.00    +0.135 A 
ATOM     31  N   LIG    1       -2.635   5.014   0.191  0.00  0.00    -0.239 NA
ATOM     32  C   LIG    1       -3.456   5.452   1.181  0.00  0.00    +0.113 A 
ATOM     33  C   LIG    1       -3.209   6.617   1.908  0.00  0.00    +0.020 A 
ENDBRANCH  26  30
ENDBRANCH  22  26
ENDBRANCH  20  24
ENDBRANCH   1  21
TORSDOF 7
