REMARK  Name = DB12661
REMARK                            x       y       z     vdW  Elec       q    Type
REMARK                         _______ _______ _______ _____ _____    ______ ____
ROOT
ATOM      1  C   LIG    1       -0.431   1.591   0.042  0.00  0.00    -0.077 C 
ENDROOT
BRANCH   1   2
ATOM      2  N   LIG    1       -1.969   1.589   0.210  0.00  0.00    +0.382 N 
ATOM      3  H   LIG    1       -2.390   1.058  -0.540  0.00  0.00    -0.082 HD
ATOM      4  C   LIG    1       -2.411   0.990   1.563  0.00  0.00    -0.060 C 
ATOM      5  C   LIG    1       -3.953   1.082   1.683  0.00  0.00    +0.086 C 
ATOM      6  N   LIG    1       -4.504   2.446   1.557  0.00  0.00    -0.331 N 
ATOM      7  C   LIG    1       -4.044   3.000   0.269  0.00  0.00    +0.086 C 
ATOM      8  C   LIG    1       -2.506   3.033   0.132  0.00  0.00    -0.060 C 
BRANCH   6   9
ATOM      9  C   LIG    1       -4.688   3.298   2.651  0.00  0.00    +0.072 A 
ATOM     10  C   LIG    1       -5.603   4.375   2.582  0.00  0.00    +0.141 A 
ATOM     11  C   LIG    1       -5.736   5.237   3.687  0.00  0.00    +0.047 A 
ATOM     12  C   LIG    1       -4.990   5.038   4.844  0.00  0.00    +0.004 A 
ATOM     13  C   LIG    1       -4.103   3.972   4.921  0.00  0.00    +0.002 A 
ATOM     14  C   LIG    1       -3.956   3.111   3.837  0.00  0.00    +0.027 A 
BRANCH  10  15
ATOM     15  O   LIG    1       -6.360   4.518   1.430  0.00  0.00    -0.493 OA
ATOM     16  C   LIG    1       -7.309   5.574   1.329  0.00  0.00    +0.277 C 
ENDBRANCH  10  15
ENDBRANCH   6   9
ENDBRANCH   1   2
BRANCH   1  17
ATOM     17  C   LIG    1        0.125   0.162  -0.116  0.00  0.00    +0.000 C 
BRANCH  17  18
ATOM     18  C   LIG    1        1.630   0.113  -0.439  0.00  0.00    +0.101 C 
BRANCH  18  19
ATOM     19  N   LIG    1        2.472   0.628   0.634  0.00  0.00    -0.330 N 
ATOM     20  H   LIG    1        2.712  -0.079   1.315  0.00  0.00    +0.147 HD
BRANCH  19  30
ATOM     21  C   LIG    1        3.828   1.048   3.033  0.00  0.00    +0.155 C 
ATOM     22  N   LIG    1        3.637   2.101   2.013  0.00  0.00    -0.285 N 
ATOM     23  C   LIG    1        4.319   3.285   2.236  0.00  0.00    +0.333 A 
ATOM     24  O   LIG    1        5.276   3.374   3.014  0.00  0.00    -0.246 OA
ATOM     25  N   LIG    1        3.944   4.332   1.407  0.00  0.00    -0.264 N 
ATOM     26  C   LIG    1        3.130   4.282   0.296  0.00  0.00    +0.258 A 
ATOM     27  O   LIG    1        2.750   5.246  -0.371  0.00  0.00    -0.267 OA
ATOM     28  C   LIG    1        2.685   2.942  -0.013  0.00  0.00    +0.112 A 
ATOM     29  C   LIG    1        4.431   5.674   1.789  0.00  0.00    +0.157 C 
ATOM     30  C   LIG    1        2.915   1.924   0.843  0.00  0.00    +0.108 A 
ENDBRANCH  19  30
ENDBRANCH  18  19
ENDBRANCH  17  18
ENDBRANCH   1  17
TORSDOF 7
