REMARK  Name = DB12347
REMARK                            x       y       z     vdW  Elec       q    Type
REMARK                         _______ _______ _______ _____ _____    ______ ____
ROOT
ATOM      1  N   LIG    1        1.537  -0.029  -0.477  0.00  0.00    -0.311 N 
ATOM      2  C   LIG    1        2.344  -0.069  -1.600  0.00  0.00    +0.255 A 
ATOM      3  O   LIG    1        1.939   0.032  -2.760  0.00  0.00    -0.268 OA
ATOM      4  C   LIG    1        3.775  -0.217  -1.329  0.00  0.00    +0.116 A 
ATOM      5  C   LIG    1        4.316  -0.246  -0.086  0.00  0.00    +0.127 A 
ATOM      6  C   LIG    1        3.404  -0.161   1.056  0.00  0.00    +0.063 A 
ATOM      7  C   LIG    1        2.089  -0.060   0.786  0.00  0.00    +0.093 A 
ENDROOT
BRANCH   1   8
ATOM      8  C   LIG    1        0.085   0.133  -0.683  0.00  0.00    +0.160 C 
BRANCH   8  15
ATOM      9  C   LIG    1       -2.826   0.549  -0.567  0.00  0.00    +0.046 C 
ATOM     10  C   LIG    1       -1.883   1.754  -0.502  0.00  0.00    -0.025 A 
ATOM     11  C   LIG    1       -2.392   3.064  -0.380  0.00  0.00    +0.028 A 
ATOM     12  C   LIG    1       -1.521   4.153  -0.334  0.00  0.00    +0.023 A 
ATOM     13  C   LIG    1       -0.147   3.957  -0.407  0.00  0.00    +0.002 A 
ATOM     14  C   LIG    1        0.366   2.669  -0.522  0.00  0.00    +0.006 A 
ATOM     15  C   LIG    1       -0.487   1.556  -0.570  0.00  0.00    -0.023 A 
BRANCH  11  16
ATOM     16  N   LIG    1       -3.762   3.325  -0.296  0.00  0.00    -0.358 N 
ATOM     17  H   LIG    1       -4.082   4.279  -0.208  0.00  0.00    +0.142 HD
ATOM     18  H   LIG    1       -4.417   2.558  -0.333  0.00  0.00    +0.142 HD
ENDBRANCH  11  16
ENDBRANCH   8  15
ENDBRANCH   1   8
BRANCH   5  19
ATOM     19  O   LIG    1        5.668  -0.359   0.015  0.00  0.00    -0.491 OA
BRANCH  19  20
ATOM     20  C   LIG    1        6.279  -0.205   1.295  0.00  0.00    +0.234 C 
BRANCH  20  21
ATOM     21  C   LIG    1        7.791   0.013   1.122  0.00  0.00    +0.083 C 
BRANCH  21  22
ATOM     22  C   LIG    1        8.126   1.290   0.377  0.00  0.00    -0.007 A 
ATOM     23  S   LIG    1        8.055   1.379  -1.366  0.00  0.00    -0.101 S 
ATOM     24  C   LIG    1        8.541   3.039  -1.365  0.00  0.00    +0.045 A 
ATOM     25  C   LIG    1        8.749   3.508  -0.081  0.00  0.00    +0.008 A 
ATOM     26  C   LIG    1        8.517   2.528   0.888  0.00  0.00    +0.011 A 
ENDBRANCH  21  22
ENDBRANCH  20  21
ENDBRANCH  19  20
ENDBRANCH   5  19
TORSDOF 7
