REMARK  Name = DB12443
REMARK                            x       y       z     vdW  Elec       q    Type
REMARK                         _______ _______ _______ _____ _____    ______ ____
ROOT
ATOM      1  C   LIG    1       -1.763   3.111   0.048  0.00  0.00    +0.322 A 
ATOM      2  N   LIG    1       -0.567   2.500   0.041  0.00  0.00    -0.175 NA
ATOM      3  C   LIG    1       -0.672   1.154   0.150  0.00  0.00    +0.171 A 
ATOM      4  N   LIG    1        0.320   0.216   0.181  0.00  0.00    -0.285 N 
ATOM      5  C   LIG    1       -0.308  -0.969   0.332  0.00  0.00    +0.203 A 
ATOM      6  N   LIG    1       -1.614  -0.873   0.370  0.00  0.00    -0.231 NA
ATOM      7  C   LIG    1       -1.852   0.443   0.263  0.00  0.00    +0.148 A 
ATOM      8  C   LIG    1       -3.056   1.181   0.255  0.00  0.00    +0.151 A 
ATOM      9  N   LIG    1       -2.980   2.534   0.145  0.00  0.00    -0.178 NA
ENDROOT
BRANCH   4  10
ATOM     10  C1* LIG    1        1.809   0.498   0.138  0.00  0.00    +0.253 C 
ATOM     11  O4* LIG    1        2.454  -0.535  -0.555  0.00  0.00    -0.346 OA
ATOM     12  C4* LIG    1        3.508  -1.130   0.193  0.00  0.00    +0.177 C 
ATOM     13  C3* LIG    1        3.066  -0.839   1.624  0.00  0.00    +0.178 C 
ATOM     14  C2* LIG    1        2.476   0.565   1.519  0.00  0.00    +0.195 C 
BRANCH  13  15
ATOM     15  O3* LIG    1        4.109  -0.963   2.574  0.00  0.00    -0.386 OA
ATOM     16  H3* LIG    1        3.749  -0.798   3.448  0.00  0.00    +0.210 HD
ENDBRANCH  13  15
BRANCH  14  17
ATOM     17  O2* LIG    1        3.428   1.619   1.526  0.00  0.00    -0.385 OA
ATOM     18  H2* LIG    1        3.785   1.705   2.413  0.00  0.00    +0.210 HD
ENDBRANCH  14  17
BRANCH  12  19
ATOM     19  C5* LIG    1        3.615  -2.625  -0.160  0.00  0.00    +0.190 C 
BRANCH  19  20
ATOM     20  O5* LIG    1        3.863  -2.796  -1.540  0.00  0.00    -0.392 OA
ATOM     21  H5* LIG    1        3.103  -2.470  -2.028  0.00  0.00    +0.210 HD
ENDBRANCH  19  20
ENDBRANCH  12  19
ENDBRANCH   4  10
BRANCH   8  22
ATOM     22  N   LIG    1       -4.313   0.589   0.359  0.00  0.00    -0.341 N 
ATOM     23  H   LIG    1       -5.136   1.174   0.348  0.00  0.00    +0.144 HD
ATOM     24  H   LIG    1       -4.383  -0.415   0.434  0.00  0.00    +0.144 HD
ENDBRANCH   8  22
BRANCH   1  25
ATOM     25  O   LIG    1       -1.660   4.452  -0.055  0.00  0.00    -0.462 OA
BRANCH  25  26
ATOM     26  C   LIG    1       -2.849   5.249  -0.016  0.00  0.00    +0.237 C 
BRANCH  26  27
ATOM     27  C   LIG    1       -2.470   6.737  -0.103  0.00  0.00    +0.076 C 
BRANCH  27  29
ATOM     28  C   LIG    1       -2.171   7.622   2.247  0.00  0.00    +0.005 A 
ATOM     29  C   LIG    1       -1.588   7.198   1.050  0.00  0.00    -0.044 A 
ATOM     30  C   LIG    1       -0.197   7.186   0.914  0.00  0.00    +0.005 A 
ATOM     31  C   LIG    1        0.608   7.600   1.972  0.00  0.00    +0.020 A 
ATOM     32  C   LIG    1        0.022   8.024   3.164  0.00  0.00    +0.041 A 
ATOM     33 CL   LIG    1        1.020   8.536   4.475  0.00  0.00    -0.084 Cl
ATOM     34  C   LIG    1       -1.365   8.036   3.305  0.00  0.00    +0.020 A 
ENDBRANCH  27  29
ENDBRANCH  26  27
ENDBRANCH  25  26
ENDBRANCH   1  25
TORSDOF 10
