REMARK  Name = DB12873
REMARK                            x       y       z     vdW  Elec       q    Type
REMARK                         _______ _______ _______ _____ _____    ______ ____
ROOT
ATOM      1  C   LIG    1       -0.024   0.002  -0.047  0.00  0.00    +0.176 C 
ENDROOT
BRANCH   1   4
ATOM      2  C   LIG    1       -0.915  -2.172  -1.205  0.00  0.00    +0.194 C 
ATOM      3  O   LIG    1       -1.896  -1.170  -1.247  0.00  0.00    -0.369 OA
ATOM      4  C   LIG    1       -0.567  -0.719  -1.298  0.00  0.00    +0.175 C 
ENDBRANCH   1   4
BRANCH   1   5
ATOM      5  O   LIG    1       -0.506   1.332  -0.078  0.00  0.00    -0.386 OA
ATOM      6  H   LIG    1       -0.198   1.787   0.709  0.00  0.00    +0.210 HD
ENDBRANCH   1   5
BRANCH   1   7
ATOM      7  C   LIG    1        1.523  -0.002   0.048  0.00  0.00    +0.176 C 
BRANCH   7   8
ATOM      8  C   LIG    1        2.066   0.719   1.298  0.00  0.00    +0.175 C 
ATOM      9  O   LIG    1        3.395   1.170   1.247  0.00  0.00    -0.369 OA
ATOM     10  C   LIG    1        2.414   2.172   1.205  0.00  0.00    +0.194 C 
ENDBRANCH   7   8
BRANCH   7  11
ATOM     11  O   LIG    1        2.006  -1.332   0.079  0.00  0.00    -0.386 OA
ATOM     12  H   LIG    1        1.705  -1.785  -0.712  0.00  0.00    +0.210 HD
ENDBRANCH   7  11
ENDBRANCH   1   7
TORSDOF 5
