REMARK  Name = DB12060
REMARK                            x       y       z     vdW  Elec       q    Type
REMARK                         _______ _______ _______ _____ _____    ______ ____
ROOT
ATOM      1  C   LIG    1       -0.662  -0.803  -1.080  0.00  0.00    +0.173 C 
ATOM      2  N   LIG    1       -1.528  -1.383  -0.030  0.00  0.00    -0.292 N 
ATOM      3  C   LIG    1       -2.409  -2.395  -0.060  0.00  0.00    +0.226 C 
ATOM      4  O   LIG    1       -3.066  -2.665  -1.064  0.00  0.00    -0.275 OA
ATOM      5  C   LIG    1       -1.158  -0.416   1.030  0.00  0.00    +0.173 C 
ATOM      6  C   LIG    1       -0.131   0.159   0.017  0.00  0.00    +0.289 C 
ENDROOT
BRANCH   3   7
ATOM      7  C   LIG    1       -2.702  -3.120   1.254  0.00  0.00    +0.175 C 
ATOM      8 BR   LIG    1       -4.121  -2.243   2.339  0.00  0.00    -0.082 Br
ENDBRANCH   3   7
BRANCH   6   9
ATOM      9  N   LIG    1       -0.328   1.618  -0.296  0.00  0.00    +0.008 N 
ATOM     10  O   LIG    1       -0.145   1.989  -1.452  0.00  0.00    -0.133 OA
BRANCH   9  11
ATOM     11  O   LIG    1       -0.639   2.369   0.623  0.00  0.00    -0.398 OA
ATOM     12  H   LIG    1       -0.765   2.026   1.486  0.00  0.00    +0.329 HD
ENDBRANCH   9  11
ENDBRANCH   6   9
BRANCH   6  13
ATOM     13  N   LIG    1        1.309  -0.071   0.398  0.00  0.00    +0.008 N 
ATOM     14  O   LIG    1        1.618   0.040   1.581  0.00  0.00    -0.133 OA
BRANCH  13  15
ATOM     15  O   LIG    1        2.107  -0.332  -0.496  0.00  0.00    -0.398 OA
ATOM     16  H   LIG    1        1.812  -0.404  -1.382  0.00  0.00    +0.329 HD
ENDBRANCH  13  15
ENDBRANCH   6  13
TORSDOF 5
