REMARK  Name = DB12440
REMARK                            x       y       z     vdW  Elec       q    Type
REMARK                         _______ _______ _______ _____ _____    ______ ____
ROOT
ATOM      1  N   LIG    1        3.978   1.287  -0.040  0.00  0.00    -0.300 N 
ATOM      2  C   LIG    1        4.350   2.609   0.235  0.00  0.00    +0.140 C 
ATOM      3  S   LIG    1        4.312   3.324   1.748  0.00  0.00    -0.018 S 
ATOM      4  N   LIG    1        4.763   3.378  -0.758  0.00  0.00    -0.266 N 
ATOM      5  H   LIG    1        5.016   4.298  -0.514  0.00  0.00    +0.157 HD
ATOM      6  C   LIG    1        4.881   3.061  -2.053  0.00  0.00    +0.243 C 
ATOM      7  O   LIG    1        5.274   3.826  -2.933  0.00  0.00    -0.273 OA
ATOM      8  C   LIG    1        4.493   1.691  -2.347  0.00  0.00    +0.150 C 
ATOM      9  N   LIG    1        4.475   1.021  -3.543  0.00  0.00    -0.295 NA
ATOM     10  H   LIG    1        4.744   1.412  -4.435  0.00  0.00    +0.123 HD
ATOM     11  C   LIG    1        4.029  -0.261  -3.334  0.00  0.00    +0.078 C 
ATOM     12  C   LIG    1        3.758  -0.411  -1.979  0.00  0.00    +0.042 C 
ATOM     13  C   LIG    1        4.050   0.816  -1.359  0.00  0.00    +0.094 C 
ENDROOT
BRANCH   1  14
ATOM     14  C   LIG    1        3.479   0.371   1.012  0.00  0.00    +0.135 C 
BRANCH  14  15
ATOM     15  C   LIG    1        1.951   0.420   1.203  0.00  0.00    +0.179 C 
BRANCH  15  16
ATOM     16  O   LIG    1        1.302  -0.011   0.012  0.00  0.00    -0.376 OA
BRANCH  16  18
ATOM     17  C   LIG    1       -0.595  -0.884  -1.125  0.00  0.00    +0.037 C 
ATOM     18  C   LIG    1       -0.122  -0.002   0.039  0.00  0.00    +0.112 C 
ATOM     19  C   LIG    1       -0.676   1.432  -0.072  0.00  0.00    +0.037 C 
ENDBRANCH  16  18
ENDBRANCH  15  16
ENDBRANCH  14  15
ENDBRANCH   1  14
TORSDOF 4
