REMARK  Name = DB12551
REMARK                            x       y       z     vdW  Elec       q    Type
REMARK                         _______ _______ _______ _____ _____    ______ ____
ROOT
ATOM      1  C   LIG    1       -4.254   1.974   1.392  0.00  0.00    +0.004 A 
ATOM      2  C   LIG    1       -3.771   0.664   1.407  0.00  0.00    +0.049 A 
ATOM      3  C   LIG    1       -2.546   0.375   0.806  0.00  0.00    +0.162 A 
ATOM      4  O   LIG    1       -2.101  -0.926   0.829  0.00  0.00    -0.484 OA
ATOM      5  C   LIG    1       -0.677  -1.007   0.847  0.00  0.00    +0.286 C 
ATOM      6  C   LIG    1       -0.058  -0.179  -0.314  0.00  0.00    +0.320 C 
ATOM      7  O   LIG    1       -0.610   1.147  -0.460  0.00  0.00    -0.470 OA
ATOM      8  C   LIG    1       -1.810   1.390   0.178  0.00  0.00    +0.163 A 
ATOM      9  C   LIG    1       -2.296   2.697   0.162  0.00  0.00    +0.049 A 
ATOM     10  C   LIG    1       -3.518   2.988   0.773  0.00  0.00    +0.004 A 
ENDROOT
BRANCH   6  11
ATOM     11  C   LIG    1        1.433  -0.031  -0.115  0.00  0.00    +0.283 C 
ATOM     12  N   LIG    1        2.330  -1.011  -0.253  0.00  0.00    -0.234 N 
ATOM     13  H   LIG    1        2.103  -1.958  -0.522  0.00  0.00    +0.291 HD
ATOM     14  C   LIG    1        3.651  -0.620   0.216  0.00  0.00    +0.268 C 
ATOM     15  C   LIG    1        3.546   0.896   0.166  0.00  0.00    +0.276 C 
ATOM     16  N   LIG    1        2.103   1.079   0.216  0.00  0.00    -0.272 N 
ATOM     17  H   LIG    1        1.668   1.978   0.369  0.00  0.00    +0.304 HD
ENDBRANCH   6  11
TORSDOF 1
