REMARK  Name = DB12627
REMARK                            x       y       z     vdW  Elec       q    Type
REMARK                         _______ _______ _______ _____ _____    ______ ____
ROOT
ATOM      1  O   LIG    1        2.151   0.431   1.419  0.00  0.00    -0.490 OA
ENDROOT
BRANCH   1   2
ATOM      2  C   LIG    1        3.528   0.524   1.382  0.00  0.00    +0.139 A 
ATOM      3  C   LIG    1        4.193   0.766   2.585  0.00  0.00    +0.157 A 
ATOM      4  N   LIG    1        5.541   0.888   2.684  0.00  0.00    -0.251 NA
ATOM      5  C   LIG    1        6.295   0.763   1.556  0.00  0.00    +0.071 A 
ATOM      6  C   LIG    1        5.703   0.518   0.309  0.00  0.00    +0.032 A 
ATOM      7  C   LIG    1        4.315   0.397   0.225  0.00  0.00    +0.049 A 
BRANCH   5   8
ATOM      8  C   LIG    1        7.773   0.921   1.718  0.00  0.00    +0.000 A 
ATOM      9  C   LIG    1        8.308   1.784   2.687  0.00  0.00    +0.012 A 
ATOM     10  C   LIG    1        9.684   1.933   2.831  0.00  0.00    +0.027 A 
ATOM     11  C   LIG    1       10.549   1.219   2.002  0.00  0.00    +0.088 A 
ATOM     12  C   LIG    1       10.037   0.351   1.038  0.00  0.00    +0.027 A 
ATOM     13  C   LIG    1        8.659   0.207   0.899  0.00  0.00    +0.012 A 
BRANCH  11  14
ATOM     14  S   LIG    1       12.321   1.399   2.190  0.00  0.00    -0.006 S 
ATOM     15  C   LIG    1       12.757   0.054   3.437  0.00  0.00    +0.200 C 
ATOM     16  O   LIG    1       12.570   2.706   2.808  0.00  0.00    -0.170 OA
ATOM     17  O   LIG    1       12.939   1.059   0.903  0.00  0.00    -0.170 OA
ENDBRANCH  11  14
ENDBRANCH   5   8
ENDBRANCH   1   2
BRANCH   1  18
ATOM     18  C   LIG    1        1.436   0.231   0.202  0.00  0.00    +0.232 C 
BRANCH  18  22
ATOM     19  N   LIG    1       -2.905  -0.705   0.531  0.00  0.00    -0.283 N 
ATOM     20  C   LIG    1       -2.419   0.237  -0.498  0.00  0.00    +0.110 C 
ATOM     21  C   LIG    1       -0.911   0.108  -0.797  0.00  0.00    +0.026 C 
ATOM     22  C   LIG    1       -0.079   0.250   0.484  0.00  0.00    +0.030 C 
ATOM     23  C   LIG    1       -0.536  -0.889   1.407  0.00  0.00    +0.026 C 
ATOM     24  C   LIG    1       -2.042  -0.777   1.729  0.00  0.00    +0.110 C 
BRANCH  19  28
ATOM     25  C   LIG    1       -6.233  -1.343   0.291  0.00  0.00    +0.176 A 
ATOM     26  N   LIG    1       -6.032  -1.940   1.447  0.00  0.00    -0.059 NA
ATOM     27  O   LIG    1       -4.671  -1.747   1.671  0.00  0.00    -0.317 OA
ATOM     28  C   LIG    1       -4.231  -1.042   0.597  0.00  0.00    +0.317 A 
ATOM     29  N   LIG    1       -5.175  -0.787  -0.271  0.00  0.00    -0.178 NA
BRANCH  25  31
ATOM     30  C   LIG    1       -7.626  -2.046  -1.705  0.00  0.00    +0.015 C 
ATOM     31  C   LIG    1       -7.613  -1.304  -0.355  0.00  0.00    +0.054 C 
ATOM     32  C   LIG    1       -8.126   0.141  -0.503  0.00  0.00    +0.015 C 
ENDBRANCH  25  31
ENDBRANCH  19  28
ENDBRANCH  18  22
ENDBRANCH   1  18
TORSDOF 7
