REMARK  Name = DB12640
REMARK                            x       y       z     vdW  Elec       q    Type
REMARK                         _______ _______ _______ _____ _____    ______ ____
ROOT
ATOM      1  C   LIG    1        1.527  -0.081  -0.065  0.00  0.00    -0.009 A 
ATOM      2  C   LIG    1        2.300  -1.097  -0.645  0.00  0.00    +0.017 A 
ATOM      3  C   LIG    1        3.699  -1.095  -0.557  0.00  0.00    +0.007 A 
ATOM      4  C   LIG    1        4.541  -2.155  -1.180  0.00  0.00    -0.004 A 
ATOM      5  C   LIG    1        5.875  -2.140  -0.946  0.00  0.00    +0.079 A 
ATOM      6  C   LIG    1        6.582  -1.136  -0.171  0.00  0.00    +0.252 A 
ATOM      7  N   LIG    1        5.775  -0.144   0.325  0.00  0.00    -0.311 N 
ATOM      8  C   LIG    1        6.430   0.930   1.097  0.00  0.00    +0.152 C 
ATOM      9  O   LIG    1        7.803  -1.213  -0.019  0.00  0.00    -0.268 OA
ATOM     10  C   LIG    1        4.351  -0.088   0.184  0.00  0.00    +0.052 A 
ATOM     11  C   LIG    1        3.576   0.926   0.770  0.00  0.00    +0.027 A 
ATOM     12  C   LIG    1        2.189   0.930   0.641  0.00  0.00    +0.009 A 
ENDROOT
BRANCH   4  13
ATOM     13  C   LIG    1        3.979  -3.222  -2.048  0.00  0.00    -0.016 A 
ATOM     14  C   LIG    1        3.155  -2.896  -3.136  0.00  0.00    +0.025 A 
ATOM     15  C   LIG    1        2.645  -3.892  -3.974  0.00  0.00    +0.025 A 
ATOM     16  C   LIG    1        2.959  -5.231  -3.729  0.00  0.00    +0.017 A 
ATOM     17  C   LIG    1        3.786  -5.567  -2.659  0.00  0.00    +0.002 A 
ATOM     18  C   LIG    1        4.297  -4.569  -1.829  0.00  0.00    +0.008 A 
BRANCH  15  19
ATOM     19  C   LIG    1        1.802  -3.533  -5.105  0.00  0.00    -0.070 C 
ATOM     20  C   LIG    1        1.114  -3.230  -6.067  0.00  0.00    +0.009 C 
ENDBRANCH  15  19
ENDBRANCH   4  13
BRANCH   1  21
ATOM     21  C   LIG    1       -0.020  -0.065  -0.163  0.00  0.00    +0.138 C 
BRANCH  21  24
ATOM     22  C   LIG    1        0.451   0.263  -3.286  0.00  0.00    +0.107 C 
ATOM     23  N   LIG    1       -0.341  -0.786  -2.655  0.00  0.00    -0.276 NA
ATOM     24  C   LIG    1       -0.580  -0.978  -1.281  0.00  0.00    +0.100 C 
ATOM     25  C   LIG    1       -1.400  -2.112  -1.203  0.00  0.00    +0.100 C 
ATOM     26  N   LIG    1       -1.632  -2.596  -2.472  0.00  0.00    -0.293 NA
ATOM     27  H   LIG    1       -2.191  -3.405  -2.705  0.00  0.00    +0.124 HD
ATOM     28  C   LIG    1       -0.984  -1.783  -3.362  0.00  0.00    +0.157 C 
ENDBRANCH  21  24
BRANCH  21  29
ATOM     29  C   LIG    1       -0.595  -0.509   1.210  0.00  0.00    -0.010 A 
ATOM     30  C   LIG    1       -1.551   0.258   1.898  0.00  0.00    +0.008 A 
ATOM     31  C   LIG    1       -2.051  -0.165   3.126  0.00  0.00    +0.020 A 
ATOM     32  C   LIG    1       -1.602  -1.359   3.683  0.00  0.00    +0.041 A 
ATOM     33 CL   LIG    1       -2.224  -1.884   5.205  0.00  0.00    -0.084 Cl
ATOM     34  C   LIG    1       -0.656  -2.134   3.018  0.00  0.00    +0.020 A 
ATOM     35  C   LIG    1       -0.157  -1.711   1.791  0.00  0.00    +0.008 A 
ENDBRANCH  21  29
BRANCH  21  36
ATOM     36  O   LIG    1       -0.454   1.249  -0.498  0.00  0.00    -0.377 OA
ATOM     37  H   LIG    1       -0.121   1.467  -1.371  0.00  0.00    +0.211 HD
ENDBRANCH  21  36
ENDBRANCH   1  21
TORSDOF 6
