REMARK  Name = DB12340
REMARK                            x       y       z     vdW  Elec       q    Type
REMARK                         _______ _______ _______ _____ _____    ______ ____
ROOT
ATOM      1  S   LIG    1        1.912  -1.433   0.123  0.00  0.00    +0.075 S 
ATOM      2  O   LIG    1        1.993  -2.861   0.459  0.00  0.00    -0.150 OA
ATOM      3  O   LIG    1        2.546  -0.482   1.045  0.00  0.00    -0.150 OA
ENDROOT
BRANCH   1   4
ATOM      4  C   LIG    1        0.157  -1.059   0.198  0.00  0.00    +0.111 A 
ATOM      5  C   LIG    1       -0.290   0.179   0.663  0.00  0.00    +0.058 A 
ATOM      6  C   LIG    1       -1.659   0.469   0.735  0.00  0.00    +0.120 A 
ATOM      7  C   LIG    1       -2.601  -0.500   0.330  0.00  0.00    +0.053 A 
ATOM      8  C   LIG    1       -2.134  -1.736  -0.146  0.00  0.00    +0.027 A 
ATOM      9  C   LIG    1       -0.772  -2.012  -0.217  0.00  0.00    +0.031 A 
BRANCH   6  10
ATOM     10  S   LIG    1       -2.138   2.096   1.367  0.00  0.00    +0.093 S 
ATOM     11  O   LIG    1       -3.302   2.555   0.599  0.00  0.00    -0.161 OA
ATOM     12  O   LIG    1       -0.930   2.929   1.413  0.00  0.00    -0.161 OA
BRANCH  10  13
ATOM     13  C   LIG    1       -2.679   1.755   3.154  0.00  0.00    +0.526 C 
ATOM     14  F   LIG    1       -3.762   0.982   3.135  0.00  0.00    -0.150 F 
ATOM     15  F   LIG    1       -1.675   1.145   3.784  0.00  0.00    -0.150 F 
ATOM     16  F   LIG    1       -2.953   2.924   3.730  0.00  0.00    -0.150 F 
ENDBRANCH  10  13
ENDBRANCH   6  10
BRANCH   7  17
ATOM     17  N   LIG    1       -3.981  -0.224   0.416  0.00  0.00    -0.339 N 
ATOM     18  H   LIG    1       -4.256   0.698   0.724  0.00  0.00    +0.146 HD
BRANCH  17  19
ATOM     19  C   LIG    1       -5.027  -1.076  -0.153  0.00  0.00    +0.079 C 
BRANCH  19  20
ATOM     20  C   LIG    1       -5.050  -1.007  -1.699  0.00  0.00    +0.096 C 
BRANCH  20  21
ATOM     21  S   LIG    1       -5.909  -2.382  -2.516  0.00  0.00    -0.123 S 
BRANCH  21  22
ATOM     22  C   LIG    1       -4.874  -3.777  -2.213  0.00  0.00    +0.008 A 
ATOM     23  C   LIG    1       -3.657  -3.894  -2.886  0.00  0.00    +0.015 A 
ATOM     24  C   LIG    1       -2.827  -4.981  -2.622  0.00  0.00    +0.001 A 
ATOM     25  C   LIG    1       -3.222  -5.940  -1.690  0.00  0.00    +0.000 A 
ATOM     26  C   LIG    1       -4.439  -5.824  -1.021  0.00  0.00    +0.001 A 
ATOM     27  C   LIG    1       -5.270  -4.738  -1.283  0.00  0.00    +0.015 A 
ENDBRANCH  21  22
ENDBRANCH  20  21
ENDBRANCH  19  20
BRANCH  19  28
ATOM     28  C   LIG    1       -6.410  -0.764   0.461  0.00  0.00    +0.004 C 
BRANCH  28  29
ATOM     29  C   LIG    1       -6.511  -1.128   1.957  0.00  0.00    -0.077 C 
BRANCH  29  30
ATOM     30  N   LIG    1       -7.852  -0.653   2.568  0.00  0.00    +0.383 N 
ATOM     31  H   LIG    1       -7.980   0.326   2.352  0.00  0.00    -0.082 HD
ATOM     32  C   LIG    1       -7.795  -0.767   4.109  0.00  0.00    -0.050 C 
ATOM     33  C   LIG    1       -9.150  -0.331   4.699  0.00  0.00    +0.141 C 
ATOM     34  O   LIG    1      -10.210  -1.097   4.135  0.00  0.00    -0.383 OA
ATOM     35  C   LIG    1      -10.346  -0.954   2.724  0.00  0.00    +0.141 C 
ATOM     36  C   LIG    1       -9.068  -1.423   2.001  0.00  0.00    -0.050 C 
ENDBRANCH  29  30
ENDBRANCH  28  29
ENDBRANCH  19  28
ENDBRANCH  17  19
ENDBRANCH   7  17
ENDBRANCH   1   4
BRANCH   1  39
ATOM     37  C   LIG    1        3.342  -1.347  -1.933  0.00  0.00    +0.263 C 
ATOM     38  O   LIG    1        4.316  -1.844  -1.356  0.00  0.00    -0.269 OA
ATOM     39  N   LIG    1        2.164  -1.112  -1.394  0.00  0.00    -0.181 N 
ATOM     40  H   LIG    1        1.440  -0.734  -1.943  0.00  0.00    +0.177 HD
BRANCH  37  44
ATOM     41  C   LIG    1        3.867  -0.206  -6.115  0.00  0.00    +0.030 A 
ATOM     42  C   LIG    1        2.670   0.082  -5.444  0.00  0.00    +0.024 A 
ATOM     43  C   LIG    1        2.485  -0.278  -4.111  0.00  0.00    +0.015 A 
ATOM     44  C   LIG    1        3.492  -0.950  -3.397  0.00  0.00    +0.038 A 
ATOM     45  C   LIG    1        4.679  -1.258  -4.076  0.00  0.00    +0.015 A 
ATOM     46  C   LIG    1        4.858  -0.903  -5.409  0.00  0.00    +0.024 A 
BRANCH  41  51
ATOM     47  N   LIG    1        5.853   2.265  -8.499  0.00  0.00    +0.384 N 
ATOM     48  H   LIG    1        5.652   2.194  -9.487  0.00  0.00    -0.081 HD
ATOM     49  C   LIG    1        6.370   0.895  -8.007  0.00  0.00    -0.059 C 
ATOM     50  C   LIG    1        5.261  -0.159  -8.220  0.00  0.00    +0.086 C 
ATOM     51  N   LIG    1        4.032   0.146  -7.461  0.00  0.00    -0.333 N 
ATOM     52  C   LIG    1        3.532   1.439  -7.975  0.00  0.00    +0.086 C 
ATOM     53  C   LIG    1        4.541   2.591  -7.753  0.00  0.00    -0.059 C 
BRANCH  47  54
ATOM     54  C   LIG    1        6.900   3.379  -8.264  0.00  0.00    -0.047 C 
BRANCH  54  58
ATOM     55  C   LIG    1        9.872   5.034 -11.028  0.00  0.00    +0.011 C 
ATOM     56  C   LIG    1        9.364   3.600 -11.326  0.00  0.00    -0.031 C 
ATOM     57  C   LIG    1        8.022   3.330 -10.589  0.00  0.00    +0.035 C 
ATOM     58  C   LIG    1        8.191   3.192  -9.066  0.00  0.00    -0.082 C 
ATOM     59  C   LIG    1        9.371   2.788  -8.507  0.00  0.00    -0.043 C 
ATOM     60  C   LIG    1       10.664   2.671  -9.323  0.00  0.00    +0.036 C 
ATOM     61  C   LIG    1       10.363   2.523 -10.826  0.00  0.00    +0.011 C 
ATOM     62  C   LIG    1        9.144   3.373 -12.838  0.00  0.00    +0.011 C 
BRANCH  59  63
ATOM     63  C   LIG    1        9.540   2.700  -7.043  0.00  0.00    -0.022 A 
ATOM     64  C   LIG    1        9.774   1.457  -6.449  0.00  0.00    +0.009 A 
ATOM     65  C   LIG    1        9.951   1.360  -5.072  0.00  0.00    +0.020 A 
ATOM     66  C   LIG    1        9.906   2.511  -4.287  0.00  0.00    +0.041 A 
ATOM     67 CL   LIG    1       10.125   2.391  -2.579  0.00  0.00    -0.084 Cl
ATOM     68  C   LIG    1        9.692   3.757  -4.871  0.00  0.00    +0.020 A 
ATOM     69  C   LIG    1        9.515   3.853  -6.249  0.00  0.00    +0.009 A 
ENDBRANCH  59  63
ENDBRANCH  54  58
ENDBRANCH  47  54
ENDBRANCH  41  51
ENDBRANCH  37  44
ENDBRANCH   1  39
TORSDOF 17
