REMARK  Name = DB12101
REMARK                            x       y       z     vdW  Elec       q    Type
REMARK                         _______ _______ _______ _____ _____    ______ ____
ROOT
ATOM      1  C   LIG    1       -0.526   4.034  -0.131  0.00  0.00    +0.004 A 
ATOM      2  C   LIG    1        0.195   2.836  -0.113  0.00  0.00    +0.046 A 
ATOM      3  C   LIG    1       -0.478   1.603  -0.036  0.00  0.00    +0.126 A 
ATOM      4  C   LIG    1       -1.875   1.601   0.024  0.00  0.00    +0.024 A 
ATOM      5  C   LIG    1       -2.849   0.467   0.110  0.00  0.00    +0.148 C 
ATOM      6  N   LIG    1       -4.139   1.158   0.136  0.00  0.00    -0.281 N 
ATOM      7  C   LIG    1       -4.047   2.509   0.075  0.00  0.00    +0.248 C 
ATOM      8  O   LIG    1       -4.971   3.324   0.079  0.00  0.00    -0.270 OA
ATOM      9  C   LIG    1       -2.580   2.790   0.005  0.00  0.00    +0.045 A 
ATOM     10  C   LIG    1       -1.921   4.017  -0.072  0.00  0.00    +0.013 A 
ENDROOT
BRANCH   6  11
ATOM     11  C   LIG    1       -5.427   0.444   0.223  0.00  0.00    +0.163 C 
ATOM     12  C   LIG    1       -5.660  -0.104   1.662  0.00  0.00    +0.240 C 
ATOM     13  O   LIG    1       -5.059   0.283   2.664  0.00  0.00    -0.273 OA
ATOM     14  N   LIG    1       -6.628  -1.048   1.746  0.00  0.00    -0.255 N 
ATOM     15  H   LIG    1       -6.827  -1.346   2.690  0.00  0.00    +0.158 HD
ATOM     16  C   LIG    1       -7.362  -1.687   0.802  0.00  0.00    +0.219 C 
ATOM     17  O   LIG    1       -8.234  -2.498   1.108  0.00  0.00    -0.275 OA
ATOM     18  C   LIG    1       -7.036  -1.316  -0.665  0.00  0.00    +0.098 C 
ATOM     19  C   LIG    1       -5.630  -0.698  -0.794  0.00  0.00    +0.041 C 
ENDBRANCH   6  11
BRANCH   3  20
ATOM     20  O   LIG    1        0.129   0.364  -0.015  0.00  0.00    -0.487 OA
BRANCH  20  21
ATOM     21  C   LIG    1        1.550   0.289  -0.084  0.00  0.00    +0.264 C 
BRANCH  21  22
ATOM     22  C   LIG    1        1.966  -1.172  -0.037  0.00  0.00    -0.010 A 
ATOM     23  C   LIG    1        1.906  -1.869   1.171  0.00  0.00    +0.007 A 
ATOM     24  C   LIG    1        2.280  -3.209   1.219  0.00  0.00    +0.005 A 
ATOM     25  C   LIG    1        2.700  -3.859   0.056  0.00  0.00    -0.033 A 
ATOM     26  C   LIG    1        2.776  -3.156  -1.149  0.00  0.00    +0.005 A 
ATOM     27  C   LIG    1        2.403  -1.815  -1.197  0.00  0.00    +0.007 A 
BRANCH  25  28
ATOM     28  C   LIG    1        3.159  -5.311   0.124  0.00  0.00    +0.119 C 
BRANCH  28  29
ATOM     29  N   LIG    1        4.511  -5.447   0.676  0.00  0.00    -0.294 NA
ATOM     30  C   LIG    1        4.764  -6.838   1.074  0.00  0.00    +0.113 C 
ATOM     31  C   LIG    1        6.203  -7.026   1.602  0.00  0.00    +0.175 C 
ATOM     32  O   LIG    1        7.141  -6.568   0.634  0.00  0.00    -0.377 OA
ATOM     33  C   LIG    1        6.966  -5.191   0.321  0.00  0.00    +0.175 C 
ATOM     34  C   LIG    1        5.548  -4.950  -0.241  0.00  0.00    +0.113 C 
ENDBRANCH  28  29
ENDBRANCH  25  28
ENDBRANCH  21  22
ENDBRANCH  20  21
ENDBRANCH   3  20
TORSDOF 6
