REMARK  Name = DB12509
REMARK                            x       y       z     vdW  Elec       q    Type
REMARK                         _______ _______ _______ _____ _____    ______ ____
ROOT
ATOM      1  C   LIG    1       -2.563  -2.067  -1.303  0.00  0.00    +0.063 C 
ATOM      2  C   LIG    1       -2.122  -1.441   0.031  0.00  0.00    +0.206 C 
ATOM      3  N   LIG    1       -2.781  -0.138   0.207  0.00  0.00    -0.230 NA
ATOM      4  H   LIG    1       -3.782  -0.062   0.311  0.00  0.00    +0.130 HD
ATOM      5  C   LIG    1       -2.033   0.972   0.070  0.00  0.00    +0.300 C 
ATOM      6  N   LIG    1       -0.701   1.014  -0.139  0.00  0.00    -0.071 NA
ATOM      7  C   LIG    1        0.010  -0.057  -0.110  0.00  0.00    +0.371 C 
ATOM      8  N   LIG    1       -0.663  -1.291   0.164  0.00  0.00    -0.223 N 
ATOM      9  H   LIG    1       -0.120  -2.138   0.075  0.00  0.00    +0.246 HD
ENDROOT
BRANCH   5  10
ATOM     10  N   LIG    1       -2.653   2.142   0.139  0.00  0.00    -0.275 NA
ATOM     11  H   LIG    1       -2.116   2.991   0.038  0.00  0.00    +0.123 HD
ATOM     12  H   LIG    1       -3.649   2.182   0.296  0.00  0.00    +0.123 HD
ENDBRANCH   5  10
BRANCH   7  13
ATOM     13  N   LIG    1        1.430  -0.019  -0.321  0.00  0.00    -0.230 N 
ATOM     14  C   LIG    1        2.160   1.246  -0.219  0.00  0.00    +0.228 C 
ATOM     15  C   LIG    1        2.248  -1.169   0.062  0.00  0.00    +0.228 C 
ENDBRANCH   7  13
TORSDOF 2
