REMARK  Name = DB12375
REMARK                            x       y       z     vdW  Elec       q    Type
REMARK                         _______ _______ _______ _____ _____    ______ ____
ROOT
ATOM      1  C   LIG    1        1.473   0.235  -0.272  0.00  0.00    +0.048 A 
ATOM      2  C   LIG    1        2.204   1.416  -0.061  0.00  0.00    +0.036 A 
ATOM      3  C   LIG    1        3.609   1.362  -0.040  0.00  0.00    +0.031 A 
ATOM      4  C   LIG    1        4.642   2.304   0.149  0.00  0.00    +0.044 A 
ATOM      5  C   LIG    1        5.851   1.576   0.004  0.00  0.00    +0.179 A 
ATOM      6  O   LIG    1        5.596   0.249  -0.233  0.00  0.00    -0.451 OA
ATOM      7  C   LIG    1        7.117   2.163   0.096  0.00  0.00    +0.170 A 
ATOM      8  C   LIG    1        7.154   3.541   0.337  0.00  0.00    +0.050 A 
ATOM      9  C   LIG    1        5.979   4.278   0.492  0.00  0.00    +0.017 A 
ATOM     10  C   LIG    1        4.702   3.695   0.414  0.00  0.00    +0.049 A 
ATOM     11  C   LIG    1        4.235   0.115  -0.259  0.00  0.00    +0.137 A 
ATOM     12  C   LIG    1        3.526  -1.070  -0.476  0.00  0.00    +0.049 A 
ATOM     13  C   LIG    1        2.135  -0.981  -0.474  0.00  0.00    +0.028 A 
ENDROOT
BRANCH  10  14
ATOM     14  C   LIG    1        3.496   4.568   0.634  0.00  0.00    +0.249 C 
ATOM     15  N   LIG    1        3.458   5.693  -0.108  0.00  0.00    -0.279 N 
ATOM     16  H   LIG    1        4.215   5.889  -0.745  0.00  0.00    +0.155 HD
ATOM     17  O   LIG    1        2.623   4.236   1.438  0.00  0.00    -0.270 OA
BRANCH  15  18
ATOM     18  C   LIG    1        2.393   6.601  -0.077  0.00  0.00    +0.074 A 
ATOM     19  C   LIG    1        2.415   7.696   0.804  0.00  0.00    +0.082 A 
ATOM     20 CL   LIG    1        3.732   7.982   1.892  0.00  0.00    -0.080 Cl
ATOM     21  C   LIG    1        1.331   8.577   0.794  0.00  0.00    +0.132 A 
ATOM     22  N   LIG    1        0.262   8.429  -0.029  0.00  0.00    -0.260 NA
ATOM     23  C   LIG    1        0.259   7.371  -0.879  0.00  0.00    +0.132 A 
ATOM     24  C   LIG    1        1.296   6.439  -0.942  0.00  0.00    +0.082 A 
ATOM     25 CL   LIG    1        1.195   5.131  -2.072  0.00  0.00    -0.080 Cl
ENDBRANCH  15  18
ENDBRANCH  10  14
BRANCH   1  26
ATOM     26  N   LIG    1        0.069   0.221  -0.290  0.00  0.00    -0.221 N 
ATOM     27  H   LIG    1       -0.392  -0.664  -0.440  0.00  0.00    +0.173 HD
BRANCH  26  29
ATOM     28  C   LIG    1       -2.684   0.934  -0.080  0.00  0.00    +0.218 C 
ATOM     29  S   LIG    1       -0.943   1.650   0.004  0.00  0.00    +0.040 S 
ATOM     30  O   LIG    1       -0.666   2.095   1.373  0.00  0.00    -0.155 OA
ATOM     31  O   LIG    1       -0.736   2.557  -1.129  0.00  0.00    -0.155 OA
ENDBRANCH  26  29
ENDBRANCH   1  26
BRANCH   7  32
ATOM     32  O   LIG    1        8.198   1.322  -0.075  0.00  0.00    -0.430 OA
BRANCH  32  33
ATOM     33  C   LIG    1        9.509   1.843   0.121  0.00  0.00    +0.541 C 
ATOM     34  F   LIG    1       10.358   0.827   0.259  0.00  0.00    -0.166 F 
ATOM     35  F   LIG    1        9.890   2.582  -0.922  0.00  0.00    -0.166 F 
ENDBRANCH  32  33
ENDBRANCH   7  32
TORSDOF 6
