REMARK  Name = DB12729
REMARK                            x       y       z     vdW  Elec       q    Type
REMARK                         _______ _______ _______ _____ _____    ______ ____
ROOT
ATOM      1  N   LIG    1        1.141   0.870   0.276  0.00  0.00    -0.281 N 
ATOM      2  H   LIG    1        1.678   0.129  -0.151  0.00  0.00    +0.155 HD
ENDROOT
BRANCH   1   5
ATOM      3  C   LIG    1       -2.320   1.780  -0.218  0.00  0.00    +0.224 A 
ATOM      4  N   LIG    1       -1.041   1.871   0.238  0.00  0.00    -0.181 NA
ATOM      5  C   LIG    1       -0.203   0.863  -0.129  0.00  0.00    +0.224 A 
ATOM      6  N   LIG    1       -0.567  -0.185  -0.913  0.00  0.00    -0.203 NA
ATOM      7  C   LIG    1       -1.867  -0.183  -1.306  0.00  0.00    +0.228 A 
ATOM      8  N   LIG    1       -2.787   0.763  -0.988  0.00  0.00    -0.203 NA
BRANCH   3   9
ATOM      9  N   LIG    1       -3.271   2.752   0.125  0.00  0.00    -0.282 N 
ATOM     10  H   LIG    1       -4.204   2.491  -0.158  0.00  0.00    +0.155 HD
BRANCH   9  12
ATOM     11  C   LIG    1       -4.418   4.650   1.131  0.00  0.00    +0.110 A 
ATOM     12  C   LIG    1       -3.216   4.017   0.745  0.00  0.00    +0.059 A 
ATOM     13  C   LIG    1       -2.002   4.690   0.961  0.00  0.00    +0.025 A 
ATOM     14  C   LIG    1       -1.975   5.948   1.558  0.00  0.00    +0.002 A 
ATOM     15  C   LIG    1       -3.163   6.560   1.944  0.00  0.00    +0.002 A 
ATOM     16  C   LIG    1       -4.377   5.915   1.730  0.00  0.00    +0.029 A 
BRANCH  11  17
ATOM     17  S   LIG    1       -6.036   3.881   0.882  0.00  0.00    +0.001 S 
ATOM     18  O   LIG    1       -5.930   2.492   1.343  0.00  0.00    -0.169 OA
ATOM     19  O   LIG    1       -7.050   4.764   1.472  0.00  0.00    -0.169 OA
BRANCH  17  21
ATOM     20  C   LIG    1       -6.247   5.317  -1.541  0.00  0.00    +0.032 C 
ATOM     21  C   LIG    1       -6.278   3.876  -1.006  0.00  0.00    +0.130 C 
ATOM     22  C   LIG    1       -7.594   3.154  -1.335  0.00  0.00    +0.032 C 
ENDBRANCH  17  21
ENDBRANCH  11  17
ENDBRANCH   9  12
ENDBRANCH   3   9
ENDBRANCH   1   5
BRANCH   1  23
ATOM     23  C   LIG    1        1.897   1.640   1.184  0.00  0.00    +0.076 A 
ATOM     24  C   LIG    1        3.293   1.468   1.196  0.00  0.00    +0.143 A 
ATOM     25  C   LIG    1        4.067   2.208   2.108  0.00  0.00    +0.070 A 
ATOM     26  C   LIG    1        3.487   3.112   3.007  0.00  0.00    +0.033 A 
ATOM     27  C   LIG    1        2.096   3.263   2.981  0.00  0.00    +0.025 A 
ATOM     28  C   LIG    1        1.313   2.538   2.087  0.00  0.00    +0.029 A 
BRANCH  26  29
ATOM     29  N   LIG    1        4.293   3.803   3.909  0.00  0.00    -0.330 N 
ATOM     30  C   LIG    1        3.809   5.038   4.559  0.00  0.00    +0.103 C 
ATOM     31  C   LIG    1        4.937   5.903   5.159  0.00  0.00    +0.004 C 
ATOM     32  C   LIG    1        5.814   5.093   6.135  0.00  0.00    -0.066 C 
ATOM     33  C   LIG    1        6.289   3.799   5.454  0.00  0.00    +0.004 C 
ATOM     34  C   LIG    1        5.110   3.009   4.849  0.00  0.00    +0.103 C 
BRANCH  32  35
ATOM     35  N   LIG    1        7.024   5.889   6.701  0.00  0.00    +0.383 N 
ATOM     36  H   LIG    1        7.589   5.232   7.220  0.00  0.00    -0.081 HD
ATOM     37  C   LIG    1        7.947   6.551   5.646  0.00  0.00    -0.063 C 
ATOM     38  C   LIG    1        9.136   7.221   6.378  0.00  0.00    +0.065 C 
ATOM     39  N   LIG    1        8.707   8.218   7.367  0.00  0.00    -0.309 NA
ATOM     40  C   LIG    1        8.176   9.445   6.777  0.00  0.00    +0.104 C 
ATOM     41  C   LIG    1        7.816   7.608   8.362  0.00  0.00    +0.065 C 
ATOM     42  C   LIG    1        6.564   6.953   7.726  0.00  0.00    -0.063 C 
ENDBRANCH  32  35
ENDBRANCH  26  29
BRANCH  24  43
ATOM     43  O   LIG    1        3.841   0.567   0.295  0.00  0.00    -0.493 OA
ATOM     44  C   LIG    1        5.250   0.364   0.264  0.00  0.00    +0.277 C 
ENDBRANCH  24  43
ENDBRANCH   1  23
TORSDOF 9
