REMARK  Name = DB12998
REMARK                            x       y       z     vdW  Elec       q    Type
REMARK                         _______ _______ _______ _____ _____    ______ ____
ROOT
ATOM      1  N   LIG    1       -4.167   2.862  -1.425  0.00  0.00    -0.333 N 
ATOM      2  C   LIG    1       -3.520   3.406  -0.215  0.00  0.00    +0.086 C 
ATOM      3  C   LIG    1       -1.988   3.195  -0.155  0.00  0.00    -0.060 C 
ATOM      4  N   LIG    1       -1.679   1.686  -0.257  0.00  0.00    +0.382 N 
ATOM      5  H   LIG    1       -2.122   1.221   0.523  0.00  0.00    -0.082 HD
ATOM      6  C   LIG    1       -2.303   1.164  -1.568  0.00  0.00    -0.060 C 
ATOM      7  C   LIG    1       -3.823   1.433  -1.540  0.00  0.00    +0.086 C 
ENDROOT
BRANCH   1  14
ATOM      8  C   LIG    1       -7.546   2.698  -5.341  0.00  0.00    +0.001 A 
ATOM      9  C   LIG    1       -6.656   3.731  -5.614  0.00  0.00    +0.008 A 
ATOM     10  C   LIG    1       -5.621   4.051  -4.699  0.00  0.00    -0.016 A 
ATOM     11  C   LIG    1       -4.735   5.120  -4.960  0.00  0.00    +0.008 A 
ATOM     12  C   LIG    1       -3.739   5.442  -4.052  0.00  0.00    +0.002 A 
ATOM     13  C   LIG    1       -3.583   4.706  -2.885  0.00  0.00    +0.024 A 
ATOM     14  C   LIG    1       -4.412   3.618  -2.575  0.00  0.00    +0.037 A 
ATOM     15  C   LIG    1       -5.475   3.291  -3.492  0.00  0.00    +0.003 A 
ATOM     16  C   LIG    1       -6.428   2.255  -3.248  0.00  0.00    +0.010 A 
ATOM     17  C   LIG    1       -7.436   1.970  -4.164  0.00  0.00    +0.001 A 
ENDBRANCH   1  14
BRANCH   4  18
ATOM     18  C   LIG    1       -0.150   1.456  -0.190  0.00  0.00    -0.079 C 
BRANCH  18  19
ATOM     19  C   LIG    1        0.189  -0.043  -0.089  0.00  0.00    -0.015 C 
BRANCH  19  20
ATOM     20  C   LIG    1        1.684  -0.292   0.177  0.00  0.00    +0.039 C 
BRANCH  20  21
ATOM     21  C   LIG    1        2.041  -1.786   0.199  0.00  0.00    +0.231 C 
BRANCH  21  22
ATOM     22  O   LIG    1        3.439  -1.926   0.453  0.00  0.00    -0.476 OA
BRANCH  22  23
ATOM     23  C   LIG    1        4.019  -3.182   0.415  0.00  0.00    +0.216 A 
ATOM     24  N   LIG    1        3.245  -4.272   0.141  0.00  0.00    -0.197 NA
ATOM     25  C   LIG    1        3.852  -5.484   0.095  0.00  0.00    +0.132 A 
ATOM     26  N   LIG    1        3.005  -6.572  -0.112  0.00  0.00    -0.270 N 
ATOM     27  H   LIG    1        2.077  -6.383  -0.463  0.00  0.00    +0.156 HD
ATOM     28  C   LIG    1        3.283  -7.882   0.060  0.00  0.00    +0.219 C 
ATOM     29  C   LIG    1        4.699  -8.148   0.643  0.00  0.00    +0.101 C 
ATOM     30  C   LIG    1        5.762  -7.095   0.215  0.00  0.00    +0.048 C 
ATOM     31  O   LIG    1        2.468  -8.770  -0.182  0.00  0.00    -0.275 OA
ATOM     32  C   LIG    1        5.218  -5.678   0.321  0.00  0.00    -0.007 A 
ATOM     33  C   LIG    1        5.990  -4.550   0.616  0.00  0.00    +0.012 A 
ATOM     34  C   LIG    1        5.390  -3.289   0.662  0.00  0.00    +0.067 A 
ENDBRANCH  22  23
ENDBRANCH  21  22
ENDBRANCH  20  21
ENDBRANCH  19  20
ENDBRANCH  18  19
ENDBRANCH   4  18
TORSDOF 7
