REMARK  Name = DB12051
REMARK                            x       y       z     vdW  Elec       q    Type
REMARK                         _______ _______ _______ _____ _____    ______ ____
ROOT
ATOM      1  C   LIG    1        1.331  -0.272  -0.311  0.00  0.00    +0.167 C 
ATOM      2  C   LIG    1        2.103  -1.507  -0.456  0.00  0.00    +0.258 C 
ATOM      3  O   LIG    1        1.551  -2.585  -0.711  0.00  0.00    -0.270 OA
ATOM      4  N   LIG    1        3.462  -1.437  -0.307  0.00  0.00    -0.289 N 
ATOM      5  C   LIG    1        4.222  -0.217   0.077  0.00  0.00    +0.090 C 
ATOM      6  C   LIG    1        5.286   0.268  -0.950  0.00  0.00    +0.011 C 
ATOM      7  C   LIG    1        4.496   1.246  -1.812  0.00  0.00    +0.009 C 
ATOM      8  C   LIG    1        4.096   2.107  -0.619  0.00  0.00    +0.002 C 
ATOM      9  C   LIG    1        5.472   2.486  -0.030  0.00  0.00    +0.004 C 
ATOM     10  C   LIG    1        6.299   1.205  -0.259  0.00  0.00    +0.005 C 
ATOM     11  C   LIG    1        3.378   1.081   0.301  0.00  0.00    +0.079 C 
ATOM     12  C   LIG    1        1.893   0.913   0.037  0.00  0.00    +0.119 C 
ENDROOT
BRANCH   1  18
ATOM     13  C   LIG    1       -4.899  -1.981   0.044  0.00  0.00    +0.050 A 
ATOM     14  C   LIG    1       -4.271  -1.270  -0.982  0.00  0.00    +0.059 A 
ATOM     15  C   LIG    1       -2.952  -0.840  -0.828  0.00  0.00    +0.181 A 
ATOM     16  S   LIG    1       -2.216   0.253  -2.044  0.00  0.00    +0.183 S 
ATOM     17  N   LIG    1       -0.497  -0.001  -1.730  0.00  0.00    +0.096 NA
ATOM     18  C   LIG    1       -0.097  -0.310  -0.562  0.00  0.00    +0.358 C 
ATOM     19  N   LIG    1       -0.903  -0.758   0.477  0.00  0.00    -0.196 N 
ATOM     20  H   LIG    1       -0.447  -0.971   1.352  0.00  0.00    +0.299 HD
ATOM     21  O   LIG    1       -2.583   1.628  -1.688  0.00  0.00    -0.125 OA
ATOM     22  O   LIG    1       -2.569  -0.225  -3.386  0.00  0.00    -0.125 OA
ATOM     23  C   LIG    1       -2.256  -1.120   0.359  0.00  0.00    +0.148 A 
ATOM     24  C   LIG    1       -2.893  -1.807   1.393  0.00  0.00    +0.053 A 
ATOM     25  C   LIG    1       -4.212  -2.236   1.235  0.00  0.00    +0.028 A 
BRANCH  13  26
ATOM     26  N   LIG    1       -6.223  -2.400  -0.119  0.00  0.00    -0.221 N 
ATOM     27  H   LIG    1       -6.707  -1.845  -0.810  0.00  0.00    +0.173 HD
BRANCH  26  29
ATOM     28  C   LIG    1       -8.425  -4.195  -0.083  0.00  0.00    +0.218 C 
ATOM     29  S   LIG    1       -6.556  -4.128  -0.315  0.00  0.00    +0.040 S 
ATOM     30  O   LIG    1       -6.234  -4.464  -1.706  0.00  0.00    -0.155 OA
ATOM     31  O   LIG    1       -5.912  -4.834   0.798  0.00  0.00    -0.155 OA
ENDBRANCH  26  29
ENDBRANCH  13  26
ENDBRANCH   1  18
BRANCH  12  32
ATOM     32  O   LIG    1        1.190   2.074   0.206  0.00  0.00    -0.510 OA
ATOM     33  H   LIG    1        1.794   2.785   0.432  0.00  0.00    +0.292 HD
ENDBRANCH  12  32
BRANCH   4  34
ATOM     34  C   LIG    1        4.268  -2.673  -0.401  0.00  0.00    +0.143 C 
BRANCH  34  35
ATOM     35  C   LIG    1        4.733  -3.201   0.949  0.00  0.00    -0.030 A 
ATOM     36  C   LIG    1        6.063  -3.033   1.340  0.00  0.00    +0.008 A 
ATOM     37  C   LIG    1        6.497  -3.543   2.561  0.00  0.00    +0.038 A 
ATOM     38  C   LIG    1        5.602  -4.229   3.380  0.00  0.00    +0.123 A 
ATOM     39  F   LIG    1        6.024  -4.725   4.566  0.00  0.00    -0.205 F 
ATOM     40  C   LIG    1        4.278  -4.413   2.987  0.00  0.00    +0.038 A 
ATOM     41  C   LIG    1        3.843  -3.902   1.766  0.00  0.00    +0.008 A 
ENDBRANCH  34  35
ENDBRANCH   4  34
TORSDOF 6
