REMARK  Name = DB12394
REMARK                            x       y       z     vdW  Elec       q    Type
REMARK                         _______ _______ _______ _____ _____    ______ ____
ROOT
ATOM      1  N   LIG    1       -3.812   2.766  -0.786  0.00  0.00    -0.287 N 
ATOM      2  C   LIG    1       -2.656   2.629  -0.070  0.00  0.00    +0.251 C 
ATOM      3  O   LIG    1       -2.074   3.566   0.485  0.00  0.00    -0.270 OA
ATOM      4  C   LIG    1       -2.044   1.236  -0.016  0.00  0.00    +0.079 A 
ATOM      5  C   LIG    1       -0.643   1.158  -0.005  0.00  0.00    +0.025 A 
ATOM      6  C   LIG    1        0.020  -0.074   0.058  0.00  0.00    -0.017 A 
ATOM      7  C   LIG    1       -0.750  -1.240   0.130  0.00  0.00    +0.012 A 
ATOM      8  C   LIG    1       -2.141  -1.177   0.150  0.00  0.00    +0.047 A 
ATOM      9  C   LIG    1       -2.802   0.050   0.082  0.00  0.00    +0.133 A 
ATOM     10  O   LIG    1       -4.175   0.058   0.173  0.00  0.00    -0.490 OA
ATOM     11  C   LIG    1       -4.920   0.533  -0.946  0.00  0.00    +0.248 C 
ATOM     12  C   LIG    1       -4.308   1.726  -1.698  0.00  0.00    +0.149 C 
ENDROOT
BRANCH   6  13
ATOM     13  C   LIG    1        1.509  -0.141   0.048  0.00  0.00    -0.018 A 
ATOM     14  C   LIG    1        2.174  -1.101  -0.724  0.00  0.00    +0.012 A 
ATOM     15  C   LIG    1        3.564  -1.164  -0.738  0.00  0.00    +0.046 A 
ATOM     16  C   LIG    1        4.321  -0.263   0.026  0.00  0.00    +0.130 A 
ATOM     17  C   LIG    1        3.659   0.692   0.797  0.00  0.00    +0.046 A 
ATOM     18  C   LIG    1        2.269   0.754   0.809  0.00  0.00    +0.012 A 
BRANCH  16  19
ATOM     19  O   LIG    1        5.703  -0.244   0.081  0.00  0.00    -0.406 OA
BRANCH  19  20
ATOM     20  C   LIG    1        6.474  -1.167  -0.688  0.00  0.00    +0.575 C 
ATOM     21  F   LIG    1        6.274  -1.008  -1.997  0.00  0.00    -0.133 F 
ATOM     22  F   LIG    1        6.240  -2.429  -0.323  0.00  0.00    -0.133 F 
ATOM     23  F   LIG    1        7.758  -0.911  -0.443  0.00  0.00    -0.133 F 
ENDBRANCH  19  20
ENDBRANCH  16  19
ENDBRANCH   6  13
BRANCH   1  24
ATOM     24  C   LIG    1       -4.470   4.084  -0.823  0.00  0.00    +0.184 C 
BRANCH  24  28
ATOM     25  C   LIG    1       -2.889   6.910  -3.558  0.00  0.00    +0.039 A 
ATOM     26  C   LIG    1       -2.860   5.542  -3.837  0.00  0.00    +0.114 A 
ATOM     27  N   LIG    1       -3.366   4.612  -2.985  0.00  0.00    -0.239 NA
ATOM     28  C   LIG    1       -3.913   5.088  -1.832  0.00  0.00    +0.146 A 
ATOM     29  N   LIG    1       -3.986   6.396  -1.466  0.00  0.00    -0.239 NA
ATOM     30  C   LIG    1       -3.469   7.294  -2.346  0.00  0.00    +0.114 A 
ENDBRANCH  24  28
ENDBRANCH   1  24
TORSDOF 5
