REMARK  Name = DB12307
REMARK                            x       y       z     vdW  Elec       q    Type
REMARK                         _______ _______ _______ _____ _____    ______ ____
ROOT
ATOM      1  C   LIG    1        2.018  -0.668  -1.246  0.00  0.00    +0.164 A 
ATOM      2  C   LIG    1        1.985  -0.173  -2.554  0.00  0.00    +0.167 A 
ATOM      3  F   LIG    1        1.354   0.992  -2.827  0.00  0.00    -0.202 F 
ATOM      4  C   LIG    1        2.603  -0.880  -3.585  0.00  0.00    +0.065 A 
ATOM      5  C   LIG    1        3.273  -2.080  -3.324  0.00  0.00    +0.036 A 
ATOM      6  C   LIG    1        3.302  -2.574  -2.008  0.00  0.00    +0.027 A 
ATOM      7  C   LIG    1        2.685  -1.865  -0.978  0.00  0.00    +0.051 A 
ENDROOT
BRANCH   5   8
ATOM      8  N   LIG    1        3.854  -2.724  -4.431  0.00  0.00    -0.285 N 
ATOM      9  H   LIG    1        3.551  -2.374  -5.328  0.00  0.00    +0.155 HD
ATOM     10  C   LIG    1        4.802  -3.686  -4.454  0.00  0.00    +0.232 C 
ATOM     11  O   LIG    1        5.393  -4.115  -3.462  0.00  0.00    -0.274 OA
BRANCH  10  12
ATOM     12  C   LIG    1        5.251  -4.163  -5.853  0.00  0.00    +0.123 C 
ATOM     13  C   LIG    1        4.135  -4.457  -6.854  0.00  0.00    +0.027 C 
ATOM     14  C   LIG    1        4.838  -5.599  -6.159  0.00  0.00    +0.027 C 
BRANCH  12  15
ATOM     15  C   LIG    1        6.621  -3.746  -6.458  0.00  0.00    +0.232 C 
ATOM     16  N   LIG    1        7.393  -2.930  -5.703  0.00  0.00    -0.285 N 
ATOM     17  H   LIG    1        7.056  -2.741  -4.770  0.00  0.00    +0.155 HD
ATOM     18  O   LIG    1        6.955  -4.168  -7.568  0.00  0.00    -0.274 OA
BRANCH  16  19
ATOM     19  C   LIG    1        8.650  -2.366  -5.990  0.00  0.00    +0.034 A 
ATOM     20  C   LIG    1        9.184  -2.236  -7.283  0.00  0.00    +0.026 A 
ATOM     21  C   LIG    1       10.434  -1.650  -7.463  0.00  0.00    +0.040 A 
ATOM     22  C   LIG    1       11.148  -1.187  -6.361  0.00  0.00    +0.124 A 
ATOM     23  F   LIG    1       12.362  -0.617  -6.539  0.00  0.00    -0.205 F 
ATOM     24  C   LIG    1       10.621  -1.301  -5.077  0.00  0.00    +0.040 A 
ATOM     25  C   LIG    1        9.370  -1.886  -4.894  0.00  0.00    +0.026 A 
ENDBRANCH  16  19
ENDBRANCH  12  15
ENDBRANCH  10  12
ENDBRANCH   5   8
BRANCH   1  26
ATOM     26  O   LIG    1        1.423   0.027  -0.221  0.00  0.00    -0.452 OA
BRANCH  26  31
ATOM     27  C   LIG    1       -2.139   0.994   0.159  0.00  0.00    +0.078 A 
ATOM     28  N   LIG    1       -2.745  -0.223   0.251  0.00  0.00    -0.255 NA
ATOM     29  C   LIG    1       -1.972  -1.333   0.184  0.00  0.00    +0.115 A 
ATOM     30  C   LIG    1       -0.591  -1.298   0.024  0.00  0.00    +0.066 A 
ATOM     31  C   LIG    1        0.055  -0.061  -0.077  0.00  0.00    +0.139 A 
ATOM     32  C   LIG    1       -0.728   1.127  -0.001  0.00  0.00    +0.046 A 
ATOM     33  C   LIG    1       -0.171   2.425  -0.088  0.00  0.00    +0.063 A 
ATOM     34  C   LIG    1       -0.984   3.568  -0.029  0.00  0.00    +0.162 A 
ATOM     35  C   LIG    1       -2.369   3.432   0.122  0.00  0.00    +0.164 A 
ATOM     36  C   LIG    1       -2.941   2.155   0.221  0.00  0.00    +0.077 A 
BRANCH  34  37
ATOM     37  O   LIG    1       -0.489   4.858  -0.117  0.00  0.00    -0.491 OA
ATOM     38  C   LIG    1        0.910   5.066  -0.284  0.00  0.00    +0.277 C 
ENDBRANCH  34  37
BRANCH  35  39
ATOM     39  O   LIG    1       -3.106   4.603   0.161  0.00  0.00    -0.488 OA
BRANCH  39  40
ATOM     40  C   LIG    1       -4.524   4.549   0.295  0.00  0.00    +0.227 C 
BRANCH  40  41
ATOM     41  C   LIG    1       -5.083   5.978   0.226  0.00  0.00    +0.022 C 
BRANCH  41  42
ATOM     42  C   LIG    1       -4.538   6.886   1.345  0.00  0.00    -0.075 C 
BRANCH  42  43
ATOM     43  N   LIG    1       -5.201   8.285   1.317  0.00  0.00    +0.383 N 
ATOM     44  H   LIG    1       -6.205   8.171   1.304  0.00  0.00    -0.082 HD
ATOM     45  C   LIG    1       -4.801   9.102   0.065  0.00  0.00    -0.050 C 
ATOM     46  C   LIG    1       -5.423  10.510   0.160  0.00  0.00    +0.141 C 
ATOM     47  O   LIG    1       -5.051  11.147   1.378  0.00  0.00    -0.383 OA
ATOM     48  C   LIG    1       -5.480  10.461   2.550  0.00  0.00    +0.141 C 
ATOM     49  C   LIG    1       -4.852   9.055   2.612  0.00  0.00    -0.050 C 
ENDBRANCH  42  43
ENDBRANCH  41  42
ENDBRANCH  40  41
ENDBRANCH  39  40
ENDBRANCH  35  39
ENDBRANCH  26  31
ENDBRANCH   1  26
TORSDOF 12
