REMARK  Name = DB12522
REMARK                            x       y       z     vdW  Elec       q    Type
REMARK                         _______ _______ _______ _____ _____    ______ ____
ROOT
ATOM      1  C   LIG    1       -3.052  -0.143   0.472  0.00  0.00    +0.056 A 
ATOM      2  C   LIG    1       -2.281  -1.295   0.217  0.00  0.00    +0.054 A 
ATOM      3  C   LIG    1       -2.855  -2.553  -0.419  0.00  0.00    +0.066 C 
ATOM      4  N   LIG    1       -0.953  -1.361   0.505  0.00  0.00    -0.219 NA
ATOM      5  C   LIG    1       -0.379  -0.255   1.054  0.00  0.00    +0.215 A 
ATOM      6  N   LIG    1       -1.035   0.898   1.333  0.00  0.00    -0.222 NA
ATOM      7  C   LIG    1       -2.359   0.936   1.039  0.00  0.00    +0.127 A 
ENDROOT
BRANCH   1  14
ATOM      8  C   LIG    1       -9.991   1.978  -1.183  0.00  0.00    +0.044 C 
ATOM      9  C   LIG    1       -8.777   1.151  -0.799  0.00  0.00    -0.048 A 
ATOM     10  C   LIG    1       -7.523   1.767  -0.721  0.00  0.00    +0.031 A 
ATOM     11  C   LIG    1       -6.448   0.956  -0.353  0.00  0.00    +0.067 A 
ATOM     12  N   LIG    1       -5.104   1.186  -0.177  0.00  0.00    -0.338 N 
ATOM     13  H   LIG    1       -4.590   2.048  -0.288  0.00  0.00    +0.167 HD
ATOM     14  C   LIG    1       -4.517  -0.005   0.191  0.00  0.00    +0.142 A 
ATOM     15  N   LIG    1       -5.389  -0.983   0.270  0.00  0.00    -0.227 NA
ATOM     16  C   LIG    1       -6.596  -0.423  -0.065  0.00  0.00    +0.092 A 
ATOM     17  C   LIG    1       -7.865  -1.025  -0.145  0.00  0.00    -0.023 A 
ATOM     18  C   LIG    1       -8.107  -2.496   0.148  0.00  0.00    +0.046 C 
ATOM     19  C   LIG    1       -8.940  -0.209  -0.515  0.00  0.00    +0.009 A 
ENDBRANCH   1  14
BRANCH   5  20
ATOM     20  N   LIG    1        0.988  -0.262   1.368  0.00  0.00    -0.313 N 
ATOM     21  H   LIG    1        1.395   0.551   1.808  0.00  0.00    +0.149 HD
BRANCH  20  22
ATOM     22  C   LIG    1        1.820  -1.445   1.180  0.00  0.00    +0.104 C 
BRANCH  22  23
ATOM     23  C   LIG    1        3.288  -1.214   1.574  0.00  0.00    +0.019 C 
BRANCH  23  24
ATOM     24  C   LIG    1        4.161  -2.472   1.402  0.00  0.00    +0.005 C 
BRANCH  24  25
ATOM     25  C   LIG    1        5.664  -2.258   1.708  0.00  0.00    -0.014 C 
ATOM     26  C   LIG    1        5.941  -1.959   3.200  0.00  0.00    -0.015 C 
ATOM     27  C   LIG    1        7.433  -1.668   3.446  0.00  0.00    -0.079 C 
ATOM     28  N   LIG    1        8.257  -2.894   2.986  0.00  0.00    +0.378 N 
ATOM     29  H   LIG    1        7.967  -3.685   3.545  0.00  0.00    -0.082 HD
ATOM     30  C   LIG    1        9.759  -2.643   3.224  0.00  0.00    -0.096 C 
ATOM     31  C   LIG    1        8.003  -3.250   1.502  0.00  0.00    -0.079 C 
ATOM     32  C   LIG    1        6.495  -3.498   1.309  0.00  0.00    -0.015 C 
ENDBRANCH  24  25
ENDBRANCH  23  24
ENDBRANCH  22  23
ENDBRANCH  20  22
ENDBRANCH   5  20
TORSDOF 6
