REMARK  Name = DB12577
REMARK                            x       y       z     vdW  Elec       q    Type
REMARK                         _______ _______ _______ _____ _____    ______ ____
ROOT
ATOM      1  C   LIG    1        1.272   5.434   0.234  0.00  0.00    +0.162 A 
ATOM      2  C   LIG    1        0.296   5.050   1.163  0.00  0.00    +0.174 A 
ATOM      3  C   LIG    1       -0.236   3.756   1.126  0.00  0.00    +0.058 A 
ATOM      4  C   LIG    1        0.209   2.823   0.187  0.00  0.00    -0.021 A 
ATOM      5  C   LIG    1        1.178   3.210  -0.743  0.00  0.00    +0.012 A 
ATOM      6  C   LIG    1        1.706   4.499  -0.721  0.00  0.00    +0.050 A 
ENDROOT
BRANCH   1   8
ATOM      7  C   LIG    1        2.769   7.157  -0.580  0.00  0.00    +0.277 C 
ATOM      8  O   LIG    1        1.755   6.727   0.323  0.00  0.00    -0.491 OA
ENDBRANCH   1   8
BRANCH   4   9
ATOM      9  C   LIG    1       -0.353   1.459   0.206  0.00  0.00    +0.008 C 
ATOM     10  C   LIG    1        0.297   0.281   0.075  0.00  0.00    +0.009 C 
BRANCH  10  11
ATOM     11  C   LIG    1        1.752   0.030  -0.003  0.00  0.00    -0.018 A 
ATOM     12  C   LIG    1        2.677   0.807   0.700  0.00  0.00    +0.057 A 
ATOM     13  C   LIG    1        4.056   0.572   0.595  0.00  0.00    +0.166 A 
ATOM     14  C   LIG    1        4.501  -0.479  -0.218  0.00  0.00    +0.204 A 
ATOM     15  C   LIG    1        3.591  -1.291  -0.909  0.00  0.00    +0.166 A 
ATOM     16  C   LIG    1        2.218  -1.021  -0.795  0.00  0.00    +0.057 A 
BRANCH  13  17
ATOM     17  O   LIG    1        5.017   1.322   1.249  0.00  0.00    -0.491 OA
ATOM     18  C   LIG    1        4.614   2.435   2.041  0.00  0.00    +0.277 C 
ENDBRANCH  13  17
BRANCH  14  19
ATOM     19  O   LIG    1        5.848  -0.732  -0.320  0.00  0.00    -0.488 OA
ATOM     20  C   LIG    1        6.487  -0.041  -1.385  0.00  0.00    +0.277 C 
ENDBRANCH  14  19
BRANCH  15  21
ATOM     21  O   LIG    1        4.115  -2.318  -1.673  0.00  0.00    -0.491 OA
ATOM     22  C   LIG    1        3.235  -3.177  -2.391  0.00  0.00    +0.277 C 
ENDBRANCH  15  21
ENDBRANCH  10  11
ENDBRANCH   4   9
BRANCH   2  23
ATOM     23  O   LIG    1       -0.124   5.966   2.094  0.00  0.00    -0.400 OA
BRANCH  23  24
ATOM     24  P   LIG    1       -1.018   5.714   3.593  0.00  0.00    +0.528 P 
ATOM     25  O   LIG    1       -2.487   5.525   3.173  0.00  0.00    -0.216 OA
BRANCH  24  26
ATOM     26  O   LIG    1       -0.792   6.988   4.427  0.00  0.00    -0.293 OA
ATOM     27  H   LIG    1       -1.190   7.747   3.972  0.00  0.00    +0.223 HD
ENDBRANCH  24  26
BRANCH  24  28
ATOM     28  O   LIG    1       -0.414   4.458   4.248  0.00  0.00    -0.293 OA
ATOM     29  H   LIG    1       -0.583   3.686   3.685  0.00  0.00    +0.223 HD
ENDBRANCH  24  28
ENDBRANCH  23  24
ENDBRANCH   2  23
TORSDOF 10
