REMARK  Name = DB12093
REMARK                            x       y       z     vdW  Elec       q    Type
REMARK                         _______ _______ _______ _____ _____    ______ ____
ROOT
ATOM      1  C   LIG    1        1.359  -0.014  -0.090  0.00  0.00    +0.162 A 
ATOM      2  C   LIG    1        2.063  -1.227  -0.109  0.00  0.00    +0.163 A 
ATOM      3  C   LIG    1        3.466  -1.252  -0.041  0.00  0.00    -0.015 A 
ATOM      4  C   LIG    1        4.260  -2.559   0.032  0.00  0.00    -0.038 C 
ATOM      5  N   LIG    1        5.285  -2.360   1.167  0.00  0.00    +0.387 N 
ATOM      6  H   LIG    1        4.725  -2.029   1.941  0.00  0.00    -0.080 HD
ATOM      7  C   LIG    1        6.283  -1.188   0.950  0.00  0.00    -0.032 C 
ATOM      8  C   LIG    1        5.698  -0.093   0.002  0.00  0.00    +0.025 C 
ATOM      9  C   LIG    1        6.683  -0.818   2.388  0.00  0.00    -0.054 A 
ATOM     10  C   LIG    1        6.606   0.477   2.913  0.00  0.00    +0.051 A 
ATOM     11  C   LIG    1        6.947   0.755   4.247  0.00  0.00    +0.162 A 
ATOM     12  C   LIG    1        7.372  -0.289   5.077  0.00  0.00    +0.162 A 
ATOM     13  C   LIG    1        7.447  -1.589   4.556  0.00  0.00    +0.053 A 
ATOM     14  C   LIG    1        7.113  -1.863   3.228  0.00  0.00    -0.044 A 
ATOM     15  C   LIG    1        7.186  -3.277   2.644  0.00  0.00    +0.017 C 
ATOM     16  C   LIG    1        5.988  -3.628   1.710  0.00  0.00    -0.073 C 
ATOM     17  C   LIG    1        4.174  -0.038  -0.001  0.00  0.00    -0.044 A 
ATOM     18  C   LIG    1        3.473   1.169   0.012  0.00  0.00    +0.007 A 
ATOM     19  C   LIG    1        2.083   1.185  -0.029  0.00  0.00    +0.050 A 
ENDROOT
BRANCH   1  21
ATOM     20  C   LIG    1       -0.781   1.125  -0.100  0.00  0.00    +0.277 C 
ATOM     21  O   LIG    1       -0.023  -0.079  -0.124  0.00  0.00    -0.491 OA
ENDBRANCH   1  21
BRANCH   2  22
ATOM     22  O   LIG    1        1.375  -2.417  -0.149  0.00  0.00    -0.491 OA
ATOM     23  C   LIG    1        0.932  -2.793  -1.448  0.00  0.00    +0.277 C 
ENDBRANCH   2  22
BRANCH  11  24
ATOM     24  O   LIG    1        6.884   2.019   4.807  0.00  0.00    -0.491 OA
ATOM     25  C   LIG    1        6.456   3.121   4.013  0.00  0.00    +0.277 C 
ENDBRANCH  11  24
BRANCH  12  26
ATOM     26  O   LIG    1        7.694   0.036   6.383  0.00  0.00    -0.491 OA
ATOM     27  C   LIG    1        8.123  -0.986   7.276  0.00  0.00    +0.277 C 
ENDBRANCH  12  26
TORSDOF 4
