REMARK  Name = DB12970
REMARK                            x       y       z     vdW  Elec       q    Type
REMARK                         _______ _______ _______ _____ _____    ______ ____
ROOT
ATOM      1  C   LIG    1       -0.016  -0.056  -0.027  0.00  0.00    +0.176 C 
ENDROOT
BRANCH   1   2
ATOM      2  O   LIG    1       -0.543   1.257   0.102  0.00  0.00    -0.386 OA
ATOM      3  H   LIG    1       -0.180   1.660   0.894  0.00  0.00    +0.210 HD
ENDBRANCH   1   2
BRANCH   1   4
ATOM      4  C   LIG    1       -0.581  -0.713  -1.322  0.00  0.00    +0.171 C 
BRANCH   4   5
ATOM      5  O   LIG    1       -0.023  -2.008  -1.477  0.00  0.00    -0.387 OA
ATOM      6  H   LIG    1       -0.347  -2.568  -0.768  0.00  0.00    +0.210 HD
ENDBRANCH   4   5
BRANCH   4   7
ATOM      7  C   LIG    1       -2.125  -0.837  -1.332  0.00  0.00    +0.189 C 
BRANCH   7   8
ATOM      8  O   LIG    1       -2.605  -1.228  -2.604  0.00  0.00    -0.392 OA
ATOM      9  H   LIG    1       -3.563  -1.273  -2.569  0.00  0.00    +0.210 HD
ENDBRANCH   7   8
ENDBRANCH   4   7
ENDBRANCH   1   4
BRANCH   1  10
ATOM     10  C   LIG    1        1.545  -0.026   0.087  0.00  0.00    +0.181 C 
BRANCH  10  11
ATOM     11  O   LIG    1        2.080   0.581  -1.081  0.00  0.00    -0.386 OA
ATOM     12  H   LIG    1        1.776   0.089  -1.847  0.00  0.00    +0.210 HD
ENDBRANCH  10  11
BRANCH  10  13
ATOM     13  C   LIG    1        2.129   0.706   1.336  0.00  0.00    +0.208 C 
BRANCH  13  14
ATOM     14  O   LIG    1        3.545   0.574   1.359  0.00  0.00    -0.382 OA
ATOM     15  H   LIG    1        3.887   1.083   2.098  0.00  0.00    +0.210 HD
ENDBRANCH  13  14
BRANCH  13  16
ATOM     16  C   LIG    1        1.557   0.186   2.672  0.00  0.00    +0.257 C 
ATOM     17  O   LIG    1        2.253  -0.298   3.565  0.00  0.00    -0.298 OA
ENDBRANCH  13  16
ENDBRANCH  10  13
ENDBRANCH   1  10
TORSDOF 10
