REMARK  Name = DB12901
REMARK                            x       y       z     vdW  Elec       q    Type
REMARK                         _______ _______ _______ _____ _____    ______ ____
ROOT
ATOM      1  N   LIG    1        0.043   0.128   0.135  0.00  0.00    -0.269 N 
ATOM      2  C   LIG    1       -0.620  -1.026  -0.219  0.00  0.00    +0.111 A 
ATOM      3  C   LIG    1       -1.954  -1.094  -0.339  0.00  0.00    +0.069 A 
ATOM      4  I   LIG    1       -2.924  -2.941  -0.889  0.00  0.00    -0.039 I 
ATOM      5  C   LIG    1       -2.686   0.117  -0.074  0.00  0.00    +0.136 A 
ATOM      6  N   LIG    1       -2.077   1.204   0.258  0.00  0.00    -0.177 NA
ATOM      7  C   LIG    1       -0.672   1.296   0.368  0.00  0.00    +0.352 A 
ATOM      8  O   LIG    1       -0.066   2.334   0.640  0.00  0.00    -0.244 OA
ENDROOT
BRANCH   1   9
ATOM      9  C   LIG    1        1.502   0.139   0.297  0.00  0.00    +0.260 C 
ATOM     10  O   LIG    1        2.109  -1.072  -0.060  0.00  0.00    -0.345 OA
ATOM     11  C   LIG    1        3.392  -1.229   0.544  0.00  0.00    +0.178 C 
ATOM     12  C   LIG    1        3.509  -0.023   1.492  0.00  0.00    +0.184 C 
ATOM     13  C   LIG    1        2.072   0.451   1.681  0.00  0.00    +0.246 C 
ATOM     14  F   LIG    1        1.466  -0.301   2.604  0.00  0.00    -0.238 F 
BRANCH  12  15
ATOM     15  O   LIG    1        4.336   0.999   0.964  0.00  0.00    -0.386 OA
ATOM     16  H   LIG    1        5.176   0.610   0.708  0.00  0.00    +0.210 HD
ENDBRANCH  12  15
BRANCH  11  17
ATOM     17  C   LIG    1        3.390  -2.607   1.236  0.00  0.00    +0.190 C 
BRANCH  17  18
ATOM     18  O   LIG    1        4.693  -2.953   1.658  0.00  0.00    -0.392 OA
ATOM     19  H   LIG    1        4.662  -3.821   2.067  0.00  0.00    +0.210 HD
ENDBRANCH  17  18
ENDBRANCH  11  17
ENDBRANCH   1   9
BRANCH   5  20
ATOM     20  N   LIG    1       -4.023   0.096  -0.177  0.00  0.00    -0.342 N 
ATOM     21  H   LIG    1       -4.560   0.931   0.004  0.00  0.00    +0.144 HD
ATOM     22  H   LIG    1       -4.504  -0.753  -0.436  0.00  0.00    +0.144 HD
ENDBRANCH   5  20
TORSDOF 5
