REMARK  Name = DB12836
REMARK                            x       y       z     vdW  Elec       q    Type
REMARK                         _______ _______ _______ _____ _____    ______ ____
ROOT
ATOM      1  C   LIG    1       -2.680   0.779  -0.179  0.00  0.00    +0.032 A 
ATOM      2  C   LIG    1       -1.829   1.836   0.157  0.00  0.00    +0.023 A 
ATOM      3  C   LIG    1       -0.449   1.655   0.107  0.00  0.00    +0.005 A 
ATOM      4  C   LIG    1        0.080   0.417  -0.268  0.00  0.00    -0.046 A 
ATOM      5  C   LIG    1       -0.774  -0.640  -0.593  0.00  0.00    +0.005 A 
ATOM      6  C   LIG    1       -2.154  -0.462  -0.547  0.00  0.00    +0.023 A 
ENDROOT
BRANCH   1   8
ATOM      7  C   LIG    1       -5.008   0.802  -1.123  0.00  0.00    +0.122 C 
ATOM      8  N   LIG    1       -4.076   0.956  -0.104  0.00  0.00    -0.298 N 
ATOM      9  C   LIG    1       -4.789   1.402   0.997  0.00  0.00    +0.087 C 
ATOM     10  C   LIG    1       -4.434   1.756   2.308  0.00  0.00    +0.045 C 
ATOM     11  C   LIG    1       -5.478   2.160   3.149  0.00  0.00    +0.040 C 
ATOM     12  C   LIG    1       -5.235   2.570   4.588  0.00  0.00    +0.030 C 
ATOM     13  N   LIG    1       -6.751   2.194   2.702  0.00  0.00    -0.300 NA
ATOM     14  H   LIG    1       -7.465   2.496   3.349  0.00  0.00    +0.123 HD
ATOM     15  C   LIG    1       -7.144   1.853   1.457  0.00  0.00    +0.059 C 
ATOM     16  C   LIG    1       -8.621   1.980   1.136  0.00  0.00    +0.031 C 
ATOM     17  C   LIG    1       -6.138   1.449   0.559  0.00  0.00    +0.087 C 
ATOM     18  N   LIG    1       -6.237   1.071  -0.751  0.00  0.00    -0.282 NA
ATOM     19  H   LIG    1       -6.827   0.244  -0.842  0.00  0.00    +0.125 HD
BRANCH   7  21
ATOM     20  C   LIG    1       -5.110  -1.053  -2.859  0.00  0.00    +0.007 C 
ATOM     21  C   LIG    1       -4.669   0.385  -2.546  0.00  0.00    +0.042 C 
ENDBRANCH   7  21
ENDBRANCH   1   8
BRANCH   4  22
ATOM     22  C   LIG    1        1.587   0.218  -0.322  0.00  0.00    +0.054 C 
BRANCH  22  23
ATOM     23  C   LIG    1        2.151   0.311  -1.751  0.00  0.00    +0.110 C 
BRANCH  23  24
ATOM     24  N   LIG    1        3.588   0.043  -1.809  0.00  0.00    -0.298 N 
ATOM     25  H   LIG    1        3.847  -0.914  -1.625  0.00  0.00    +0.150 HD
ATOM     26  C   LIG    1        4.473   0.775  -2.505  0.00  0.00    +0.319 C 
ATOM     27  N   LIG    1        5.662   0.921  -1.976  0.00  0.00    -0.169 N 
ATOM     28  H   LIG    1        5.873   0.480  -1.122  0.00  0.00    +0.178 HD
ATOM     29  O   LIG    1        4.098   1.298  -3.559  0.00  0.00    -0.251 OA
BRANCH  27  30
ATOM     30  S   LIG    1        6.758   1.793  -2.692  0.00  0.00    +0.076 S 
ATOM     31  O   LIG    1        6.442   3.227  -2.744  0.00  0.00    -0.150 OA
ATOM     32  O   LIG    1        7.312   1.173  -3.902  0.00  0.00    -0.150 OA
BRANCH  30  33
ATOM     33  C   LIG    1        8.061   1.654  -1.462  0.00  0.00    +0.109 A 
ATOM     34  C   LIG    1        8.988   0.612  -1.540  0.00  0.00    +0.029 A 
ATOM     35  C   LIG    1        9.985   0.494  -0.575  0.00  0.00    +0.005 A 
ATOM     36  C   LIG    1       10.048   1.411   0.477  0.00  0.00    -0.050 A 
ATOM     37  C   LIG    1       11.141   1.297   1.524  0.00  0.00    +0.044 C 
ATOM     38  C   LIG    1        9.113   2.444   0.563  0.00  0.00    +0.005 A 
ATOM     39  C   LIG    1        8.116   2.563  -0.401  0.00  0.00    +0.029 A 
ENDBRANCH  30  33
ENDBRANCH  27  30
ENDBRANCH  23  24
ENDBRANCH  22  23
ENDBRANCH   4  22
TORSDOF 7
