REMARK  Name = DB12177
REMARK                            x       y       z     vdW  Elec       q    Type
REMARK                         _______ _______ _______ _____ _____    ______ ____
ROOT
ATOM      1  N   LIG    1        1.853  -0.748  -0.894  0.00  0.00    -0.085 NA
ATOM      2  C   LIG    1        3.122  -0.574  -0.927  0.00  0.00    +0.113 C 
ENDROOT
BRANCH   2   3
ATOM      3  C   LIG    1        3.917   0.097   0.122  0.00  0.00    +0.039 A 
ATOM      4  C   LIG    1        4.864  -0.604   0.890  0.00  0.00    +0.133 A 
ATOM      5  F   LIG    1        5.096  -1.921   0.676  0.00  0.00    -0.205 F 
ATOM      6  C   LIG    1        5.581   0.049   1.895  0.00  0.00    +0.039 A 
ATOM      7  C   LIG    1        5.359   1.400   2.152  0.00  0.00    +0.003 A 
ATOM      8  C   LIG    1        4.416   2.103   1.406  0.00  0.00    +0.001 A 
ATOM      9  C   LIG    1        3.697   1.454   0.402  0.00  0.00    +0.013 A 
ENDBRANCH   2   3
BRANCH   2  10
ATOM     10  C   LIG    1        3.883  -1.042  -2.063  0.00  0.00    +0.032 C 
ATOM     11  C   LIG    1        3.432  -1.853  -3.047  0.00  0.00    +0.010 C 
BRANCH  11  12
ATOM     12  C   LIG    1        4.208  -2.352  -4.204  0.00  0.00    -0.025 A 
ATOM     13  C   LIG    1        5.591  -2.153  -4.325  0.00  0.00    +0.011 A 
ATOM     14  C   LIG    1        6.279  -2.641  -5.434  0.00  0.00    +0.046 A 
ATOM     15  C   LIG    1        5.588  -3.329  -6.429  0.00  0.00    +0.117 A 
ATOM     16  C   LIG    1        4.214  -3.531  -6.322  0.00  0.00    +0.046 A 
ATOM     17  C   LIG    1        3.528  -3.044  -5.213  0.00  0.00    +0.011 A 
BRANCH  15  18
ATOM     18  O   LIG    1        6.263  -3.810  -7.519  0.00  0.00    -0.507 OA
ATOM     19  H   LIG    1        7.204  -3.621  -7.489  0.00  0.00    +0.292 HD
ENDBRANCH  15  18
ENDBRANCH  11  12
ENDBRANCH   2  10
BRANCH   1  20
ATOM     20  O   LIG    1        1.279  -0.304   0.317  0.00  0.00    -0.395 OA
BRANCH  20  21
ATOM     21  C   LIG    1       -0.143  -0.306   0.221  0.00  0.00    +0.244 C 
BRANCH  21  22
ATOM     22  C   LIG    1       -0.688   1.125   0.026  0.00  0.00    -0.035 C 
BRANCH  22  24
ATOM     23  C   LIG    1       -0.500   1.238  -2.539  0.00  0.00    -0.096 C 
ATOM     24  N   LIG    1       -0.046   1.833  -1.190  0.00  0.00    +0.378 N 
ATOM     25  H   LIG    1        0.952   1.690  -1.117  0.00  0.00    -0.082 HD
ATOM     26  C   LIG    1       -0.285   3.355  -1.154  0.00  0.00    -0.096 C 
ENDBRANCH  22  24
ENDBRANCH  21  22
ENDBRANCH  20  21
ENDBRANCH   1  20
TORSDOF 8
