REMARK  Name = DB12435
REMARK                            x       y       z     vdW  Elec       q    Type
REMARK                         _______ _______ _______ _____ _____    ______ ____
ROOT
ATOM      1  C   LIG    1       -0.584   0.873   0.031  0.00  0.00    +0.037 A 
ATOM      2  C   LIG    1       -1.974   1.034   0.203  0.00  0.00    +0.138 A 
ATOM      3  C   LIG    1       -2.799  -0.087   0.446  0.00  0.00    +0.059 A 
ATOM      4  C   LIG    1       -2.204  -1.355   0.487  0.00  0.00    +0.018 A 
ATOM      5  C   LIG    1       -0.836  -1.514   0.306  0.00  0.00    +0.047 A 
ATOM      6  C   LIG    1       -0.008  -0.406   0.085  0.00  0.00    +0.127 A 
ENDROOT
BRANCH   3   7
ATOM      7  C   LIG    1       -4.275   0.049   0.707  0.00  0.00    +0.164 C 
ATOM      8  C   LIG    1       -5.150  -1.195   0.530  0.00  0.00    +0.092 C 
ATOM      9  O   LIG    1       -4.836   1.111   0.973  0.00  0.00    -0.292 OA
ENDBRANCH   3   7
BRANCH   1  10
ATOM     10  C   LIG    1        0.316   2.093  -0.208  0.00  0.00    +0.042 C 
BRANCH  10  12
ATOM     11  C   LIG    1        0.075   3.130   2.146  0.00  0.00    +0.004 C 
ATOM     12  C   LIG    1        1.026   2.601   1.062  0.00  0.00    +0.001 C 
ENDBRANCH  10  12
ENDBRANCH   1  10
BRANCH   2  13
ATOM     13  O   LIG    1       -2.506   2.303   0.155  0.00  0.00    -0.491 OA
BRANCH  13  14
ATOM     14  C   LIG    1       -2.927   2.727  -1.139  0.00  0.00    +0.229 C 
BRANCH  14  15
ATOM     15  C   LIG    1       -3.040   4.262  -1.131  0.00  0.00    +0.052 C 
BRANCH  15  16
ATOM     16  C   LIG    1       -3.456   4.885  -2.490  0.00  0.00    +0.124 C 
BRANCH  16  17
ATOM     17  C   LIG    1       -2.422   4.737  -3.633  0.00  0.00    +0.305 C 
ATOM     18  O   LIG    1       -2.874   4.753  -4.800  0.00  0.00    -0.251 OA
BRANCH  17  19
ATOM     19  O   LIG    1       -1.203   4.651  -3.354  0.00  0.00    -0.481 OA
ATOM     20  H   LIG    1       -0.926   4.644  -2.459  0.00  0.00    +0.295 HD
ENDBRANCH  17  19
ENDBRANCH  16  17
ENDBRANCH  15  16
ENDBRANCH  14  15
ENDBRANCH  13  14
ENDBRANCH   2  13
BRANCH   6  21
ATOM     21  O   LIG    1        1.363  -0.500  -0.075  0.00  0.00    -0.492 OA
BRANCH  21  22
ATOM     22  C   LIG    1        2.001  -1.773  -0.033  0.00  0.00    +0.230 C 
BRANCH  22  23
ATOM     23  C   LIG    1        3.516  -1.575  -0.193  0.00  0.00    +0.052 C 
BRANCH  23  24
ATOM     24  C   LIG    1        3.914  -0.934  -1.532  0.00  0.00    +0.078 C 
BRANCH  24  25
ATOM     25  S   LIG    1        5.669  -0.501  -1.645  0.00  0.00    -0.125 S 
BRANCH  25  26
ATOM     26  C   LIG    1        5.762   0.641  -2.997  0.00  0.00    +0.015 A 
ATOM     27  C   LIG    1        5.985   2.017  -2.800  0.00  0.00    +0.008 A 
ATOM     28  C   LIG    1        6.024   2.872  -3.922  0.00  0.00    +0.131 A 
ATOM     29  C   LIG    1        5.850   2.358  -5.227  0.00  0.00    +0.059 A 
ATOM     30  C   LIG    1        5.646   0.980  -5.384  0.00  0.00    +0.016 A 
ATOM     31  C   LIG    1        5.596   0.135  -4.283  0.00  0.00    +0.016 A 
BRANCH  29  32
ATOM     32  C   LIG    1        5.928   3.219  -6.458  0.00  0.00    +0.164 C 
ATOM     33  C   LIG    1        5.108   2.783  -7.675  0.00  0.00    +0.092 C 
ATOM     34  O   LIG    1        6.505   4.306  -6.512  0.00  0.00    -0.292 OA
ENDBRANCH  29  32
BRANCH  28  35
ATOM     35  O   LIG    1        6.207   4.221  -3.718  0.00  0.00    -0.506 OA
ATOM     36  H   LIG    1        6.300   4.449  -2.790  0.00  0.00    +0.292 HD
ENDBRANCH  28  35
BRANCH  27  37
ATOM     37  C   LIG    1        6.166   2.591  -1.387  0.00  0.00    +0.040 C 
BRANCH  37  38
ATOM     38  C   LIG    1        4.831   2.996  -0.734  0.00  0.00    +0.001 C 
ATOM     39  C   LIG    1        5.010   3.568   0.679  0.00  0.00    +0.004 C 
ENDBRANCH  37  38
ENDBRANCH  27  37
ENDBRANCH  25  26
ENDBRANCH  24  25
ENDBRANCH  23  24
ENDBRANCH  22  23
ENDBRANCH  21  22
ENDBRANCH   6  21
TORSDOF 19
