REMARK  Name = DB12899
REMARK                            x       y       z     vdW  Elec       q    Type
REMARK                         _______ _______ _______ _____ _____    ______ ____
ROOT
ATOM      1  C   LIG    1       -2.827   0.167  -0.225  0.00  0.00    +0.094 A 
ATOM      2  N   LIG    1       -2.160   1.243  -0.722  0.00  0.00    -0.147 NA
ATOM      3  N   LIG    1       -0.821   1.245  -0.786  0.00  0.00    -0.133 NA
ATOM      4  C   LIG    1       -0.092   0.170  -0.370  0.00  0.00    +0.152 A 
ATOM      5  C   LIG    1       -0.729  -0.989   0.129  0.00  0.00    +0.026 A 
ATOM      6  C   LIG    1       -2.127  -0.966   0.201  0.00  0.00    +0.042 A 
ENDROOT
BRANCH   1  10
ATOM      7  C   LIG    1       -7.122   0.406  -0.125  0.00  0.00    +0.000 A 
ATOM      8  C   LIG    1       -6.411   1.162  -1.052  0.00  0.00    +0.001 A 
ATOM      9  C   LIG    1       -5.022   1.085  -1.083  0.00  0.00    +0.010 A 
ATOM     10  C   LIG    1       -4.323   0.253  -0.193  0.00  0.00    +0.002 A 
ATOM     11  C   LIG    1       -5.063  -0.498   0.734  0.00  0.00    +0.010 A 
ATOM     12  C   LIG    1       -6.453  -0.423   0.769  0.00  0.00    +0.001 A 
ENDBRANCH   1  10
BRANCH   4  13
ATOM     13  N   LIG    1        1.295   0.317  -0.410  0.00  0.00    -0.310 N 
ATOM     14  C   LIG    1        2.066   0.241   0.837  0.00  0.00    +0.125 C 
ATOM     15  C   LIG    1        3.561  -0.076   0.631  0.00  0.00    +0.127 C 
ATOM     16  N   LIG    1        4.257   0.831  -0.296  0.00  0.00    -0.297 N 
ATOM     17  C   LIG    1        3.466   0.993  -1.528  0.00  0.00    +0.127 C 
ATOM     18  C   LIG    1        1.961   1.266  -1.313  0.00  0.00    +0.125 C 
BRANCH  16  19
ATOM     19  C   LIG    1        5.638   1.047  -0.250  0.00  0.00    +0.218 A 
ATOM     20  N   LIG    1        6.315   0.640   0.864  0.00  0.00    -0.223 NA
ATOM     21  C   LIG    1        7.648   0.895   0.912  0.00  0.00    +0.116 A 
ATOM     22  C   LIG    1        8.320   1.553  -0.119  0.00  0.00    +0.039 A 
ATOM     23  C   LIG    1        7.554   1.947  -1.216  0.00  0.00    +0.116 A 
ATOM     24  N   LIG    1        6.219   1.709  -1.294  0.00  0.00    -0.223 NA
ENDBRANCH  16  19
ENDBRANCH   4  13
BRANCH   5  25
ATOM     25  C   LIG    1       -0.002  -2.228   0.534  0.00  0.00    -0.012 A 
ATOM     26  C   LIG    1       -0.264  -2.845   1.767  0.00  0.00    +0.028 A 
ATOM     27  C   LIG    1        0.438  -4.001   2.114  0.00  0.00    +0.111 A 
ATOM     28  N   LIG    1        1.370  -4.568   1.307  0.00  0.00    -0.263 NA
ATOM     29  C   LIG    1        1.614  -3.973   0.113  0.00  0.00    +0.111 A 
ATOM     30  C   LIG    1        0.954  -2.817  -0.307  0.00  0.00    +0.028 A 
ENDBRANCH   5  25
TORSDOF 4
