REMARK  Name = DB12697
REMARK                            x       y       z     vdW  Elec       q    Type
REMARK                         _______ _______ _______ _____ _____    ______ ____
ROOT
ATOM      1  CA  LIG    1       -0.054  -0.035   0.054  0.00  0.00    +0.000 C 
ENDROOT
BRANCH   1   2
ATOM      2  N   LIG    1       -0.503   1.435  -0.012  0.00  0.00    +0.000 N 
ATOM      3  H1  LIG    1       -0.136   1.945   0.779  0.00  0.00    +0.000 HD
ATOM      4  H2  LIG    1       -0.158   1.861  -0.860  0.00  0.00    +0.000 HD
ATOM      5  H3  LIG    1       -1.511   1.491  -0.008  0.00  0.00    +0.000 HD
ENDBRANCH   1   2
BRANCH   1   6
ATOM      6  C   LIG    1       -0.628  -0.665   1.353  0.00  0.00    +0.000 C 
ATOM      7  OXT LIG    1       -0.755  -1.909   1.352  0.00  0.00    +0.000 OA
BRANCH   6   8
ATOM      8  O   LIG    1       -0.913   0.062   2.334  0.00  0.00    +0.000 OA
ATOM      9  H   LIG    1       -1.270   0.917   2.196  0.00  0.00    +0.000 HD
ENDBRANCH   6   8
ENDBRANCH   1   6
BRANCH   1  10
ATOM     10  C   LIG    1        1.493  -0.068   0.008  0.00  0.00    +0.000 C 
BRANCH  10  11
ATOM     11 SE   LIG    1        2.219  -1.862  -0.381  0.00  0.00    +0.000 Se
ATOM     12  C   LIG    1        4.129  -1.494  -0.077  0.00  0.00    +0.000 C 
ENDBRANCH  10  11
ENDBRANCH   1  10
TORSDOF 5
