REMARK  Name = DB12631
REMARK                            x       y       z     vdW  Elec       q    Type
REMARK                         _______ _______ _______ _____ _____    ______ ____
ROOT
ATOM      1  CA  TYR A  4        3.379   1.091   0.220  0.00  0.00    +0.163 C 
ENDROOT
BRANCH   1   2
ATOM      2  N   TYR A  4        1.942   0.872   0.074  0.00  0.00    -0.302 N 
ATOM      3  H   TYR A  4        1.355   1.636   0.374  0.00  0.00    +0.150 HD
ATOM      4  C   UNK A  3        1.373  -0.253  -0.385  0.00  0.00    +0.234 C 
ATOM      5  O   UNK A  3        1.994  -1.246  -0.767  0.00  0.00    -0.274 OA
BRANCH   4   6
ATOM      6  C   UNK A  3       -0.166  -0.263  -0.377  0.00  0.00    +0.159 C 
BRANCH   6   7
ATOM      7  N   UNK A  3       -0.708  -0.953  -1.547  0.00  0.00    -0.302 N 
ATOM      8  H   UNK A  3       -1.151  -1.841  -1.362  0.00  0.00    +0.150 HD
ATOM      9  C   ARG A  2       -0.662  -0.499  -2.812  0.00  0.00    +0.234 C 
ATOM     10  O   ARG A  2       -0.150   0.573  -3.141  0.00  0.00    -0.274 OA
BRANCH   9  11
ATOM     11  CA  ARG A  2       -1.325  -1.397  -3.875  0.00  0.00    +0.159 C 
BRANCH  11  12
ATOM     12  N   ARG A  2       -2.757  -1.529  -3.593  0.00  0.00    -0.305 N 
ATOM     13  H   ARG A  2       -3.336  -0.775  -3.934  0.00  0.00    +0.149 HD
ATOM     14  C   ASP A  1       -3.311  -2.472  -2.810  0.00  0.00    +0.200 C 
ATOM     15  O   ASP A  1       -2.675  -3.410  -2.320  0.00  0.00    -0.278 OA
BRANCH  14  16
ATOM     16  CA  ASP A  1       -4.820  -2.274  -2.499  0.00  0.00    +0.023 C 
BRANCH  16  17
ATOM     17  N   ASP A  1       -5.467  -3.622  -2.666  0.00  0.00    +0.386 N 
ATOM     18  H1  ASP A  1       -4.950  -4.297  -2.121  0.00  0.00    -0.089 HD
ATOM     19  H2  ASP A  1       -6.418  -3.572  -2.332  0.00  0.00    -0.089 HD
ATOM     20  H3  ASP A  1       -5.455  -3.879  -3.642  0.00  0.00    -0.089 HD
ENDBRANCH  16  17
BRANCH  16  21
ATOM     21  CB  ASP A  1       -5.090  -1.650  -1.094  0.00  0.00    +0.113 C 
BRANCH  21  22
ATOM     22  CG  ASP A  1       -4.564  -0.221  -0.839  0.00  0.00    +0.304 C 
ATOM     23  OD2 ASP A  1       -4.486   0.136   0.356  0.00  0.00    -0.251 OA
BRANCH  22  24
ATOM     24  OD1 ASP A  1       -4.391   0.539  -1.819  0.00  0.00    -0.481 OA
ATOM     25  HD1 ASP A  1       -4.743   0.311  -2.657  0.00  0.00    +0.295 HD
ENDBRANCH  22  24
ENDBRANCH  21  22
ENDBRANCH  16  21
ENDBRANCH  14  16
ENDBRANCH  11  12
BRANCH  11  26
ATOM     26  CB  ARG A  2       -1.129  -0.860  -5.312  0.00  0.00    +0.033 C 
BRANCH  26  27
ATOM     27  CG  ARG A  2       -1.738  -1.754  -6.406  0.00  0.00    +0.017 C 
BRANCH  27  28
ATOM     28  CD  ARG A  2       -1.407  -1.250  -7.820  0.00  0.00    +0.084 C 
BRANCH  28  29
ATOM     29  NE  ARG A  2       -2.145  -1.986  -8.861  0.00  0.00    -0.283 NA
ATOM     30  HE  ARG A  2       -1.690  -2.820  -9.206  0.00  0.00    +0.125 HD
BRANCH  29  31
ATOM     31  CZ  ARG A  2       -3.363  -1.691  -9.357  0.00  0.00    +0.167 C 
BRANCH  31  32
ATOM     32  NH1 ARG A  2       -4.074  -0.628  -8.943  0.00  0.00    -0.297 NA
ATOM     33 HH11 ARG A  2       -3.696  -0.012  -8.237  0.00  0.00    +0.121 HD
ATOM     34 HH12 ARG A  2       -4.981  -0.434  -9.343  0.00  0.00    +0.121 HD
ENDBRANCH  31  32
BRANCH  31  35
ATOM     35  NH2 ARG A  2       -3.886  -2.488 -10.300  0.00  0.00    -0.297 NA
ATOM     36 HH21 ARG A  2       -4.795  -2.286 -10.690  0.00  0.00    +0.121 HD
ATOM     37 HH22 ARG A  2       -3.369  -3.291 -10.631  0.00  0.00    +0.121 HD
ENDBRANCH  31  35
ENDBRANCH  29  31
ENDBRANCH  28  29
ENDBRANCH  27  28
ENDBRANCH  26  27
ENDBRANCH  11  26
ENDBRANCH   9  11
ENDBRANCH   6   7
BRANCH   6  38
ATOM     38  C   UNK A  3       -0.736  -0.877   0.923  0.00  0.00    +0.032 C 
BRANCH  38  39
ATOM     39  C   UNK A  3       -0.239  -0.227   2.233  0.00  0.00    +0.002 C 
BRANCH  39  40
ATOM     40  C   UNK A  3       -0.994  -0.731   3.475  0.00  0.00    -0.003 C 
ATOM     41  C   UNK A  3       -0.471  -0.115   4.780  0.00  0.00    +0.004 C 
ENDBRANCH  39  40
ENDBRANCH  38  39
ENDBRANCH   6  38
ENDBRANCH   4   6
ENDBRANCH   1   2
BRANCH   1  44
ATOM     42  N   ILE A  5        4.842   1.809   2.029  0.00  0.00    -0.302 N 
ATOM     43  H   ILE A  5        5.500   1.151   1.636  0.00  0.00    +0.150 HD
ATOM     44  C   TYR A  4        3.641   1.967   1.454  0.00  0.00    +0.234 C 
ATOM     45  O   TYR A  4        2.780   2.757   1.847  0.00  0.00    -0.274 OA
BRANCH  42  46
ATOM     46  CA  ILE A  5        5.315   2.547   3.201  0.00  0.00    +0.162 C 
BRANCH  46  49
ATOM     47  N   HIS A  6        7.041   4.264   3.416  0.00  0.00    -0.302 N 
ATOM     48  H   HIS A  6        6.333   4.775   3.924  0.00  0.00    +0.150 HD
ATOM     49  C   ILE A  5        6.742   3.053   2.919  0.00  0.00    +0.234 C 
ATOM     50  O   ILE A  5        7.529   2.345   2.289  0.00  0.00    -0.274 OA
BRANCH  47  51
ATOM     51  CA  HIS A  6        8.361   4.893   3.376  0.00  0.00    +0.165 C 
BRANCH  51  53
ATOM     52  O   HIS A  6        7.989   5.965   5.474  0.00  0.00    -0.274 OA
ATOM     53  C   HIS A  6        8.758   5.256   4.822  0.00  0.00    +0.237 C 
ATOM     54  N   PRO A  7        9.927   4.780   5.321  0.00  0.00    -0.286 N 
ATOM     55  CD  PRO A  7       10.363   5.112   6.680  0.00  0.00    +0.109 C 
ATOM     56  CG  PRO A  7       11.658   4.338   6.897  0.00  0.00    +0.021 C 
ATOM     57  CB  PRO A  7       12.210   4.203   5.487  0.00  0.00    +0.035 C 
ATOM     58  CA  PRO A  7       10.957   3.980   4.609  0.00  0.00    +0.184 C 
BRANCH  58  59
ATOM     59  C   PRO A  7       10.653   2.450   4.377  0.00  0.00    +0.325 C 
ATOM     60  OXT PRO A  7       11.481   1.876   3.634  0.00  0.00    -0.249 OA
BRANCH  59  61
ATOM     61  O   PRO A  7        9.649   1.970   4.955  0.00  0.00    -0.479 OA
ATOM     62  H   PRO A  7        8.790   2.145   4.624  0.00  0.00    +0.295 HD
ENDBRANCH  59  61
ENDBRANCH  58  59
ENDBRANCH  51  53
BRANCH  51  63
ATOM     63  CB  HIS A  6        8.280   6.164   2.503  0.00  0.00    +0.086 C 
BRANCH  63  64
ATOM     64  CG  HIS A  6        7.979   5.928   1.041  0.00  0.00    +0.038 A 
ATOM     65  CD2 HIS A  6        7.147   6.589   0.164  0.00  0.00    +0.133 A 
ATOM     66  NE2 HIS A  6        7.210   5.988  -1.096  0.00  0.00    -0.244 NA
ATOM     67  CE1 HIS A  6        8.061   4.982  -0.933  0.00  0.00    +0.196 A 
ATOM     68  ND1 HIS A  6        8.548   4.900   0.308  0.00  0.00    -0.348 N 
ATOM     69  HD1 HIS A  6        9.200   4.209   0.652  0.00  0.00    +0.166 HD
ENDBRANCH  63  64
ENDBRANCH  51  63
ENDBRANCH  47  51
ENDBRANCH  46  49
BRANCH  46  70
ATOM     70  CB  ILE A  5        5.346   1.640   4.475  0.00  0.00    +0.015 C 
ATOM     71  CG2 ILE A  5        5.911   2.330   5.739  0.00  0.00    +0.010 C 
BRANCH  70  72
ATOM     72  CG1 ILE A  5        3.974   0.996   4.798  0.00  0.00    +0.002 C 
ATOM     73  CD1 ILE A  5        2.844   1.982   5.144  0.00  0.00    +0.004 C 
ENDBRANCH  70  72
ENDBRANCH  46  70
ENDBRANCH  42  46
ENDBRANCH   1  44
BRANCH   1  74
ATOM     74  CB  TYR A  4        3.950   1.706  -1.081  0.00  0.00    +0.067 C 
BRANCH  74  75
ATOM     75  CG  TYR A  4        3.456   3.102  -1.435  0.00  0.00    -0.045 A 
ATOM     76  CD2 TYR A  4        4.175   4.240  -1.012  0.00  0.00    +0.007 A 
ATOM     77  CE2 TYR A  4        3.710   5.530  -1.332  0.00  0.00    +0.045 A 
ATOM     78  CZ  TYR A  4        2.526   5.689  -2.079  0.00  0.00    +0.117 A 
ATOM     79  CE1 TYR A  4        1.807   4.555  -2.505  0.00  0.00    +0.045 A 
ATOM     80  CD1 TYR A  4        2.273   3.265  -2.185  0.00  0.00    +0.007 A 
BRANCH  78  81
ATOM     81  OH  TYR A  4        2.077   6.939  -2.389  0.00  0.00    -0.507 OA
ATOM     82  HH  TYR A  4        2.649   7.636  -2.059  0.00  0.00    +0.292 HD
ENDBRANCH  78  81
ENDBRANCH  74  75
ENDBRANCH   1  74
TORSDOF 34
