REMARK  Name = DB12139
REMARK                            x       y       z     vdW  Elec       q    Type
REMARK                         _______ _______ _______ _____ _____    ______ ____
ROOT
ATOM      1  C   UNK A  1       -0.430  -1.068   3.383  0.00  0.00    +0.159 C 
ATOM      2  N   UNK A  1        0.169  -0.256   2.316  0.00  0.00    -0.302 N 
ATOM      3  H   UNK A  1        0.488   0.659   2.603  0.00  0.00    +0.150 HD
ATOM      4  C   UNK A 11        0.406  -0.650   1.051  0.00  0.00    +0.237 C 
ATOM      5  O   UNK A 11        0.042  -1.728   0.578  0.00  0.00    -0.274 OA
ATOM      6  C   UNK A 11        1.243   0.309   0.173  0.00  0.00    +0.190 C 
ATOM      7  N   UNK A 11        0.398   1.222  -0.644  0.00  0.00    -0.289 N 
ATOM      8  C   UNK A  0        0.076   0.715  -1.983  0.00  0.00    +0.133 C 
ATOM      9  C   VAL A 10       -0.147   2.374  -0.163  0.00  0.00    +0.237 C 
ATOM     10  O   VAL A 10       -0.202   2.638   1.041  0.00  0.00    -0.274 OA
ATOM     11  CA  VAL A 10       -0.586   3.473  -1.183  0.00  0.00    +0.164 C 
ATOM     12  N   VAL A 10       -2.016   3.507  -1.612  0.00  0.00    -0.291 N 
ATOM     13  C   UNK A  0       -2.158   3.742  -3.058  0.00  0.00    +0.133 C 
ATOM     14  C   LEU A  9       -3.105   3.343  -0.800  0.00  0.00    +0.236 C 
ATOM     15  O   LEU A  9       -3.003   3.067   0.394  0.00  0.00    -0.274 OA
ATOM     16  CA  LEU A  9       -4.529   3.684  -1.354  0.00  0.00    +0.162 C 
ATOM     17  N   LEU A  9       -5.694   2.838  -0.951  0.00  0.00    -0.291 N 
ATOM     18  C   UNK A  0       -5.717   2.285   0.416  0.00  0.00    +0.133 C 
ATOM     19  C   LEU A  8       -6.779   2.591  -1.754  0.00  0.00    +0.236 C 
ATOM     20  O   LEU A  8       -7.737   1.910  -1.385  0.00  0.00    -0.274 OA
ATOM     21  CA  LEU A  8       -6.887   3.202  -3.185  0.00  0.00    +0.162 C 
ATOM     22  N   LEU A  8       -6.463   2.277  -4.278  0.00  0.00    -0.291 N 
ATOM     23  C   UNK A  0       -5.123   2.602  -4.795  0.00  0.00    +0.133 C 
ATOM     24  C   ALA A  7       -7.040   1.116  -4.729  0.00  0.00    +0.236 C 
ATOM     25  O   ALA A  7       -6.457   0.340  -5.493  0.00  0.00    -0.274 OA
ATOM     26  CA  ALA A  7       -8.499   0.740  -4.385  0.00  0.00    +0.156 C 
ATOM     27  CB  ALA A  7       -9.483   1.317  -5.422  0.00  0.00    +0.038 C 
ATOM     28  N   ALA A  7       -8.658  -0.714  -4.382  0.00  0.00    -0.303 N 
ATOM     29  H   ALA A  7       -8.033  -1.217  -4.996  0.00  0.00    +0.149 HD
ATOM     30  C   ALA A  6       -9.569  -1.396  -3.671  0.00  0.00    +0.234 C 
ATOM     31  O   ALA A  6      -10.369  -0.877  -2.891  0.00  0.00    -0.274 OA
ATOM     32  CA  ALA A  6       -9.575  -2.916  -3.917  0.00  0.00    +0.156 C 
ATOM     33  CB  ALA A  6      -10.385  -3.278  -5.178  0.00  0.00    +0.038 C 
ATOM     34  N   ALA A  6      -10.007  -3.698  -2.754  0.00  0.00    -0.303 N 
ATOM     35  H   ALA A  6       -9.252  -4.152  -2.261  0.00  0.00    +0.149 HD
ATOM     36  C   LEU A  5      -11.241  -3.812  -2.230  0.00  0.00    +0.234 C 
ATOM     37  O   LEU A  5      -12.262  -3.321  -2.712  0.00  0.00    -0.274 OA
ATOM     38  CA  LEU A  5      -11.319  -4.654  -0.940  0.00  0.00    +0.162 C 
ATOM     39  N   LEU A  5      -11.683  -3.857   0.265  0.00  0.00    -0.291 N 
ATOM     40  C   UNK A  0      -12.945  -3.092   0.187  0.00  0.00    +0.133 C 
ATOM     41  C   VAL A  4      -10.948  -3.777   1.417  0.00  0.00    +0.237 C 
ATOM     42  O   VAL A  4      -11.277  -3.044   2.355  0.00  0.00    -0.274 OA
ATOM     43  CA  VAL A  4       -9.647  -4.625   1.620  0.00  0.00    +0.162 C 
ATOM     44  N   VAL A  4       -8.450  -3.775   1.691  0.00  0.00    -0.302 N 
ATOM     45  H   VAL A  4       -7.930  -3.848   2.554  0.00  0.00    +0.150 HD
ATOM     46  C   VAL A  3       -8.033  -2.885   0.772  0.00  0.00    +0.234 C 
ATOM     47  O   VAL A  3       -8.599  -2.712  -0.304  0.00  0.00    -0.274 OA
ATOM     48  CA  VAL A  3       -6.787  -2.046   1.183  0.00  0.00    +0.164 C 
ATOM     49  N   VAL A  3       -5.834  -1.600   0.115  0.00  0.00    -0.288 N 
ATOM     50  C   ALA A  2       -4.495  -1.460   0.364  0.00  0.00    +0.236 C 
ATOM     51  O   ALA A  2       -3.689  -1.050  -0.478  0.00  0.00    -0.274 OA
ATOM     52  CA  ALA A  2       -3.915  -1.909   1.738  0.00  0.00    +0.159 C 
ATOM     53  CB  ALA A  2       -3.645  -3.435   1.573  0.00  0.00    +0.038 C 
ATOM     54  N   ALA A  2       -2.704  -1.154   2.202  0.00  0.00    -0.292 N 
ATOM     55  C   UNK A  0       -2.715   0.300   1.956  0.00  0.00    +0.133 C 
ATOM     56  C   UNK A  1       -1.875  -1.624   3.182  0.00  0.00    +0.236 C 
ATOM     57  O   UNK A  1       -2.175  -2.568   3.916  0.00  0.00    -0.274 OA
ENDROOT
BRANCH  11  58
ATOM     58  CB  VAL A 10       -0.099   4.873  -0.660  0.00  0.00    +0.012 C 
ATOM     59  CG2 VAL A 10        1.408   4.930  -0.311  0.00  0.00    +0.009 C 
ATOM     60  CG1 VAL A 10       -0.407   6.024  -1.639  0.00  0.00    +0.009 C 
ENDBRANCH  11  58
BRANCH  43  61
ATOM     61  CB  VAL A  4       -9.791  -5.499   2.918  0.00  0.00    +0.012 C 
ATOM     62  CG2 VAL A  4       -8.867  -6.730   2.857  0.00  0.00    +0.009 C 
ATOM     63  CG1 VAL A  4       -9.560  -4.769   4.264  0.00  0.00    +0.009 C 
ENDBRANCH  43  61
BRANCH  48  64
ATOM     64  CB  VAL A  3       -7.261  -0.838   2.064  0.00  0.00    +0.012 C 
ATOM     65  CG2 VAL A  3       -8.470  -0.050   1.518  0.00  0.00    +0.009 C 
ATOM     66  CG1 VAL A  3       -7.531  -1.247   3.524  0.00  0.00    +0.009 C 
ENDBRANCH  48  64
BRANCH   1  68
ATOM     67  C   UNK A  1       -0.903   0.895   5.039  0.00  0.00    +0.006 C 
ATOM     68  C   UNK A  1       -0.206  -0.454   4.789  0.00  0.00    +0.028 C 
ENDBRANCH   1  68
BRANCH  49  69
ATOM     69  C   UNK A  0       -6.320  -1.201  -1.226  0.00  0.00    +0.105 C 
ATOM     70  C   UNK A  0       -6.108  -2.285  -2.299  0.00  0.00    +0.024 C 
ENDBRANCH  49  69
BRANCH   6  71
ATOM     71  C   UNK A 11        2.457   0.994   0.905  0.00  0.00    +0.147 C 
BRANCH  71  72
ATOM     72  O   UNK A 11        3.211   1.710  -0.061  0.00  0.00    -0.389 OA
ATOM     73  H   UNK A 11        2.611   2.267  -0.563  0.00  0.00    +0.210 HD
ENDBRANCH  71  72
BRANCH  71  74
ATOM     74  C   UNK A 11        3.429   0.042   1.679  0.00  0.00    +0.021 C 
ATOM     75  C   UNK A 11        4.492   0.838   2.470  0.00  0.00    +0.010 C 
BRANCH  74  76
ATOM     76  C   UNK A 11        4.070  -1.055   0.788  0.00  0.00    +0.032 C 
BRANCH  76  77
ATOM     77  C   UNK A 11        4.876  -2.095   1.547  0.00  0.00    -0.031 C 
ATOM     78  C   UNK A 11        6.193  -2.309   1.388  0.00  0.00    -0.034 C 
ATOM     79  C   UNK A 11        6.996  -3.346   2.146  0.00  0.00    +0.035 C 
ENDBRANCH  76  77
ENDBRANCH  74  76
ENDBRANCH  71  74
ENDBRANCH   6  71
BRANCH  16  80
ATOM     80  CB  LEU A  9       -4.832   5.202  -1.161  0.00  0.00    +0.035 C 
BRANCH  80  81
ATOM     81  CG  LEU A  9       -4.893   5.786   0.276  0.00  0.00    -0.015 C 
ATOM     82  CD2 LEU A  9       -4.515   7.284   0.278  0.00  0.00    +0.007 C 
ATOM     83  CD1 LEU A  9       -6.263   5.549   0.951  0.00  0.00    +0.007 C 
ENDBRANCH  80  81
ENDBRANCH  16  80
BRANCH  21  84
ATOM     84  CB  LEU A  8       -8.262   3.874  -3.475  0.00  0.00    +0.035 C 
BRANCH  84  85
ATOM     85  CG  LEU A  8       -8.577   5.157  -2.669  0.00  0.00    -0.015 C 
ATOM     86  CD2 LEU A  8       -7.787   6.375  -3.195  0.00  0.00    +0.007 C 
ATOM     87  CD1 LEU A  8      -10.094   5.441  -2.627  0.00  0.00    +0.007 C 
ENDBRANCH  84  85
ENDBRANCH  21  84
BRANCH  38  88
ATOM     88  CB  LEU A  5      -12.254  -5.888  -1.058  0.00  0.00    +0.035 C 
BRANCH  88  89
ATOM     89  CG  LEU A  5      -11.736  -7.036  -1.963  0.00  0.00    -0.015 C 
ATOM     90  CD2 LEU A  5      -12.403  -8.380  -1.593  0.00  0.00    +0.007 C 
ATOM     91  CD1 LEU A  5      -11.866  -6.735  -3.473  0.00  0.00    +0.007 C 
ENDBRANCH  88  89
ENDBRANCH  38  88
TORSDOF 16
