REMARK  Name = DB12532
REMARK                            x       y       z     vdW  Elec       q    Type
REMARK                         _______ _______ _______ _____ _____    ______ ____
ROOT
ATOM      1  N   LIG    1        1.381  -0.429   0.229  0.00  0.00    -0.283 NA
ENDROOT
BRANCH   1   2
ATOM      2  C   LIG    1        0.196  -0.241  -0.624  0.00  0.00    +0.181 C 
BRANCH   2   4
ATOM      3  N   LIG    1       -1.565   1.509  -1.154  0.00  0.00    -0.298 N 
ATOM      4  C   LIG    1       -0.379   1.204  -0.532  0.00  0.00    +0.230 C 
ATOM      5  O   LIG    1        0.262   2.046   0.104  0.00  0.00    -0.274 OA
ATOM      6  C   LIG    1       -2.163   0.534  -2.093  0.00  0.00    +0.132 C 
BRANCH   3   8
ATOM      7  C   LIG    1       -1.325   3.891  -1.876  0.00  0.00    +0.032 C 
ATOM      8  C   LIG    1       -2.215   2.877  -1.102  0.00  0.00    +0.035 C 
ATOM      9  C   LIG    1       -2.379   3.370   0.371  0.00  0.00    +0.032 C 
BRANCH   8  10
ATOM     10  C   LIG    1       -3.659   2.889  -1.745  0.00  0.00    +0.060 C 
BRANCH  10  11
ATOM     11  C   LIG    1       -4.417   4.220  -1.778  0.00  0.00    -0.045 A 
ATOM     12  C   LIG    1       -4.244   5.098  -2.853  0.00  0.00    +0.004 A 
ATOM     13  C   LIG    1       -4.941   6.303  -2.889  0.00  0.00    +0.000 A 
ATOM     14  C   LIG    1       -5.818   6.624  -1.856  0.00  0.00    +0.000 A 
ATOM     15  C   LIG    1       -6.008   5.748  -0.789  0.00  0.00    +0.000 A 
ATOM     16  C   LIG    1       -5.311   4.544  -0.752  0.00  0.00    +0.004 A 
ENDBRANCH  10  11
ENDBRANCH   8  10
ENDBRANCH   3   8
ENDBRANCH   2   4
ENDBRANCH   1   2
BRANCH   1  17
ATOM     17  C   LIG    1        2.532  -1.063  -0.429  0.00  0.00    +0.181 C 
BRANCH  17  18
ATOM     18  C   LIG    1        3.209  -0.175  -1.519  0.00  0.00    +0.230 C 
ATOM     19  N   LIG    1        4.242  -0.680  -2.272  0.00  0.00    -0.298 N 
ATOM     20  C   LIG    1        4.652  -2.091  -2.094  0.00  0.00    +0.132 C 
ATOM     21  O   LIG    1        2.792   0.976  -1.674  0.00  0.00    -0.274 OA
BRANCH  19  22
ATOM     22  C   LIG    1        4.938   0.097  -3.373  0.00  0.00    +0.035 C 
ATOM     23  C   LIG    1        5.514   1.440  -2.826  0.00  0.00    +0.032 C 
ATOM     24  C   LIG    1        3.917   0.411  -4.506  0.00  0.00    +0.032 C 
BRANCH  22  25
ATOM     25  C   LIG    1        6.147  -0.693  -4.015  0.00  0.00    +0.060 C 
BRANCH  25  26
ATOM     26  C   LIG    1        6.914  -0.024  -5.160  0.00  0.00    -0.045 A 
ATOM     27  C   LIG    1        8.046   0.752  -4.888  0.00  0.00    +0.004 A 
ATOM     28  C   LIG    1        8.751   1.349  -5.930  0.00  0.00    +0.000 A 
ATOM     29  C   LIG    1        8.330   1.160  -7.244  0.00  0.00    +0.000 A 
ATOM     30  C   LIG    1        7.213   0.377  -7.526  0.00  0.00    +0.000 A 
ATOM     31  C   LIG    1        6.508  -0.219  -6.484  0.00  0.00    +0.004 A 
ENDBRANCH  25  26
ENDBRANCH  22  25
ENDBRANCH  19  22
ENDBRANCH  17  18
ENDBRANCH   1  17
BRANCH   1  32
ATOM     32  C   LIG    1        1.113  -1.053   1.538  0.00  0.00    +0.113 C 
BRANCH  32  33
ATOM     33  C   LIG    1        0.210  -0.266   2.514  0.00  0.00    +0.171 C 
BRANCH  33  34
ATOM     34  O   LIG    1       -1.162  -0.351   2.186  0.00  0.00    -0.394 OA
ATOM     35  H   LIG    1       -1.659   0.180   2.813  0.00  0.00    +0.209 HD
ENDBRANCH  33  34
ENDBRANCH  32  33
ENDBRANCH   1  32
TORSDOF 13
