REMARK  Name = DB12173
REMARK                            x       y       z     vdW  Elec       q    Type
REMARK                         _______ _______ _______ _____ _____    ______ ____
ROOT
ATOM      1  O   LIG    1       -1.790   1.495   0.000  0.00  0.00    -0.287 OA
ATOM      2  C   LIG    1       -1.108   0.473   0.000  0.00  0.00    +0.196 C 
ATOM      3  C   LIG    1       -0.943  -0.958   0.000  0.00  0.00    +0.041 C 
ATOM      4  C   LIG    1        0.152  -0.227   0.000  0.00  0.00    +0.041 C 
ENDROOT
BRANCH   3   5
ATOM      5  C   LIG    1       -1.657  -2.240   0.000  0.00  0.00    -0.014 A 
ATOM      6  C   LIG    1       -3.055  -2.264   0.000  0.00  0.00    +0.008 A 
ATOM      7  C   LIG    1       -3.733  -3.480   0.000  0.00  0.00    +0.001 A 
ATOM      8  C   LIG    1       -3.013  -4.672   0.000  0.00  0.00    +0.000 A 
ATOM      9  C   LIG    1       -1.620  -4.658   0.000  0.00  0.00    +0.001 A 
ATOM     10  C   LIG    1       -0.942  -3.441   0.000  0.00  0.00    +0.008 A 
ENDBRANCH   3   5
BRANCH   4  11
ATOM     11  C   LIG    1        1.609  -0.058   0.000  0.00  0.00    -0.014 A 
ATOM     12  C   LIG    1        2.166   1.225   0.000  0.00  0.00    +0.008 A 
ATOM     13  C   LIG    1        3.549   1.387   0.000  0.00  0.00    +0.001 A 
ATOM     14  C   LIG    1        4.375   0.265   0.000  0.00  0.00    +0.000 A 
ATOM     15  C   LIG    1        3.829  -1.017   0.000  0.00  0.00    +0.001 A 
ATOM     16  C   LIG    1        2.446  -1.178   0.000  0.00  0.00    +0.008 A 
ENDBRANCH   4  11
TORSDOF 2
