REMARK  Name = DB12540
REMARK                            x       y       z     vdW  Elec       q    Type
REMARK                         _______ _______ _______ _____ _____    ______ ____
ROOT
ATOM      1  C   LIG    1       -0.166   2.051  -0.803  0.00  0.00    +0.026 C 
ATOM      2  C   LIG    1        0.325   0.611  -0.543  0.00  0.00    +0.071 C 
ENDROOT
BRANCH   2   3
ATOM      3  N   LIG    1       -0.221  -0.300  -1.567  0.00  0.00    -0.295 NA
ATOM      4  C   LIG    1        0.393  -0.166  -2.893  0.00  0.00    +0.103 C 
ATOM      5  C   LIG    1       -0.344  -1.049  -3.925  0.00  0.00    +0.120 C 
ATOM      6  N   LIG    1       -0.388  -2.477  -3.557  0.00  0.00    -0.325 N 
ATOM      7  C   LIG    1       -0.865  -2.618  -2.168  0.00  0.00    +0.120 C 
ATOM      8  C   LIG    1       -0.123  -1.705  -1.164  0.00  0.00    +0.103 C 
BRANCH   6   9
ATOM      9  C   LIG    1       -0.661  -3.437  -4.533  0.00  0.00    +0.076 A 
ATOM     10  C   LIG    1        0.120  -3.544  -5.703  0.00  0.00    +0.183 A 
ATOM     11  O   LIG    1        1.253  -2.757  -5.821  0.00  0.00    -0.483 OA
ATOM     12  C   LIG    1        1.763  -2.638  -7.150  0.00  0.00    +0.270 C 
ATOM     13  C   LIG    1        1.829  -4.029  -7.817  0.00  0.00    +0.270 C 
ATOM     14  O   LIG    1        0.529  -4.622  -7.856  0.00  0.00    -0.485 OA
ATOM     15  C   LIG    1       -0.182  -4.512  -6.678  0.00  0.00    +0.164 A 
ATOM     16  C   LIG    1       -1.266  -5.369  -6.511  0.00  0.00    +0.049 A 
ATOM     17  C   LIG    1       -2.041  -5.278  -5.358  0.00  0.00    +0.006 A 
ATOM     18  C   LIG    1       -1.741  -4.326  -4.383  0.00  0.00    +0.027 A 
ENDBRANCH   6   9
ENDBRANCH   2   3
BRANCH   2  19
ATOM     19  C   LIG    1        1.874   0.540  -0.394  0.00  0.00    +0.134 C 
BRANCH  19  20
ATOM     20  N   LIG    1        2.398   1.152   0.849  0.00  0.00    -0.251 N 
ATOM     21  C   LIG    1        2.199   0.489   2.033  0.00  0.00    +0.252 C 
ATOM     22  O   LIG    1        1.778  -0.671   2.078  0.00  0.00    -0.270 OA
BRANCH  21  23
ATOM     23  C   LIG    1        2.423   1.213   3.348  0.00  0.00    +0.037 A 
ATOM     24  C   LIG    1        2.145   2.582   3.487  0.00  0.00    +0.014 A 
ATOM     25  C   LIG    1        2.344   3.223   4.706  0.00  0.00    +0.019 A 
ATOM     26  C   LIG    1        2.811   2.500   5.804  0.00  0.00    +0.052 A 
ATOM     27  C   LIG    1        3.075   1.135   5.684  0.00  0.00    +0.019 A 
ATOM     28  C   LIG    1        2.875   0.495   4.464  0.00  0.00    +0.014 A 
BRANCH  26  29
ATOM     29  C   LIG    1        3.020   3.169   7.079  0.00  0.00    +0.099 C 
ATOM     30  N   LIG    1        3.186   3.702   8.093  0.00  0.00    -0.191 NA
ENDBRANCH  26  29
ENDBRANCH  21  23
BRANCH  20  31
ATOM     31  C   LIG    1        3.365   2.180   0.682  0.00  0.00    +0.128 A 
ATOM     32  N   LIG    1        3.037   3.205  -0.156  0.00  0.00    -0.240 NA
ATOM     33  C   LIG    1        3.932   4.207  -0.345  0.00  0.00    +0.113 A 
ATOM     34  C   LIG    1        5.180   4.234   0.276  0.00  0.00    +0.020 A 
ATOM     35  C   LIG    1        5.523   3.180   1.123  0.00  0.00    +0.005 A 
ATOM     36  C   LIG    1        4.616   2.140   1.329  0.00  0.00    +0.044 A 
ENDBRANCH  20  31
ENDBRANCH  19  20
ENDBRANCH   2  19
TORSDOF 7
