REMARK  Name = DB12672
REMARK                            x       y       z     vdW  Elec       q    Type
REMARK                         _______ _______ _______ _____ _____    ______ ____
ROOT
ATOM      1  C   LIG    1        1.317  -0.303  -0.178  0.00  0.00    +0.041 A 
ATOM      2  C   LIG    1        2.106  -0.067  -1.313  0.00  0.00    +0.150 A 
ATOM      3  O   LIG    1        1.437  -0.037  -2.522  0.00  0.00    -0.450 OA
ATOM      4  C   LIG    1        2.129   0.167  -3.670  0.00  0.00    +0.181 A 
ATOM      5  C   LIG    1        3.463   0.395  -3.712  0.00  0.00    +0.208 A 
ATOM      6  C   LIG    1        4.289   0.391  -2.492  0.00  0.00    +0.238 A 
ATOM      7  O   LIG    1        5.508   0.578  -2.485  0.00  0.00    -0.283 OA
ATOM      8  C   LIG    1        3.499   0.138  -1.227  0.00  0.00    +0.109 A 
ATOM      9  C   LIG    1        4.088   0.097   0.055  0.00  0.00    +0.135 A 
ATOM     10  C   LIG    1        3.307  -0.133   1.186  0.00  0.00    +0.092 A 
ATOM     11  C   LIG    1        1.934  -0.331   1.079  0.00  0.00    +0.127 A 
ENDROOT
BRANCH   4  12
ATOM     12  C   LIG    1        1.192   0.215  -4.817  0.00  0.00    +0.021 A 
ATOM     13  C   LIG    1        1.293   1.208  -5.797  0.00  0.00    +0.015 A 
ATOM     14  C   LIG    1        0.408   1.238  -6.872  0.00  0.00    +0.046 A 
ATOM     15  C   LIG    1       -0.599   0.267  -6.985  0.00  0.00    +0.120 A 
ATOM     16  C   LIG    1       -0.700  -0.723  -6.008  0.00  0.00    +0.046 A 
ATOM     17  C   LIG    1        0.186  -0.751  -4.934  0.00  0.00    +0.015 A 
BRANCH  15  18
ATOM     18  O   LIG    1       -1.521   0.216  -8.012  0.00  0.00    -0.495 OA
ATOM     19  C   LIG    1       -1.469   1.198  -9.042  0.00  0.00    +0.277 C 
ENDBRANCH  15  18
ENDBRANCH   4  12
BRANCH   5  20
ATOM     20  O   LIG    1        4.165   0.621  -4.860  0.00  0.00    -0.501 OA
ATOM     21  H   LIG    1        3.573   0.578  -5.615  0.00  0.00    +0.292 HD
ENDBRANCH   5  20
BRANCH   9  22
ATOM     22  O   LIG    1        5.433   0.280   0.262  0.00  0.00    -0.506 OA
ATOM     23  H   LIG    1        5.679   0.223   1.188  0.00  0.00    +0.292 HD
ENDBRANCH   9  22
BRANCH  11  24
ATOM     24  O   LIG    1        1.216  -0.548   2.226  0.00  0.00    -0.506 OA
ATOM     25  H   LIG    1        1.764  -0.534   3.014  0.00  0.00    +0.292 HD
ENDBRANCH  11  24
BRANCH   1  26
ATOM     26  C   LIG    1       -0.190  -0.531  -0.322  0.00  0.00    +0.069 C 
BRANCH  26  29
ATOM     27  C   LIG    1       -2.503   2.679  -0.108  0.00  0.00    +0.038 C 
ATOM     28  C   LIG    1       -1.801   1.393   0.296  0.00  0.00    -0.079 C 
ATOM     29  C   LIG    1       -0.958   0.763  -0.550  0.00  0.00    -0.023 C 
ATOM     30  C   LIG    1       -2.135   0.925   1.706  0.00  0.00    +0.038 C 
ENDBRANCH  26  29
ENDBRANCH   1  26
TORSDOF 7
