REMARK  Name = DB12810
REMARK                            x       y       z     vdW  Elec       q    Type
REMARK                         _______ _______ _______ _____ _____    ______ ____
ROOT
ATOM      1  B   LIG    1        0.107   0.129   0.280  0.00  0.00    +0.000 B 
ATOM      2  O   LIG    1       -0.639   1.286   0.175  0.00  0.00    +0.000 OA
ATOM      3  C   LIG    1       -1.909   1.103   0.793  0.00  0.00    +0.000 C 
ATOM      4  C   LIG    1       -1.941  -0.311   1.331  0.00  0.00    +0.000 A 
ATOM      5  C   LIG    1       -2.942  -0.998   2.020  0.00  0.00    +0.000 A 
ATOM      6  C   LIG    1       -2.726  -2.321   2.415  0.00  0.00    +0.000 A 
ATOM      7 CL   LIG    1       -3.957  -3.179   3.267  0.00  0.00    +0.000 Cl
ATOM      8  C   LIG    1       -1.512  -2.950   2.121  0.00  0.00    +0.000 A 
ATOM      9  C   LIG    1       -0.513  -2.258   1.433  0.00  0.00    +0.000 A 
ATOM     10  C   LIG    1       -0.740  -0.938   1.043  0.00  0.00    +0.000 A 
ENDROOT
BRANCH   1  11
ATOM     11  O   LIG    1        1.368  -0.079  -0.192  0.00  0.00    +0.000 OA
ATOM     12  H   LIG    1        1.714   0.701  -0.631  0.00  0.00    +0.000 HD
ENDBRANCH   1  11
TORSDOF 1
