REMARK  Name = DB12192
REMARK                            x       y       z     vdW  Elec       q    Type
REMARK                         _______ _______ _______ _____ _____    ______ ____
ROOT
ATOM      1  C   LIG    1       -2.217  -1.069   0.172  0.00  0.00    +0.001 A 
ATOM      2  C   LIG    1       -2.761   0.212   0.118  0.00  0.00    +0.013 A 
ATOM      3  C   LIG    1       -1.936   1.335  -0.031  0.00  0.00    +0.037 A 
ATOM      4  C   LIG    1       -0.546   1.138  -0.120  0.00  0.00    +0.026 A 
ATOM      5  C   LIG    1        0.019  -0.146  -0.071  0.00  0.00    +0.037 A 
ATOM      6  C   LIG    1       -0.839  -1.248   0.080  0.00  0.00    +0.013 A 
ENDROOT
BRANCH   3   7
ATOM      7  C   LIG    1       -2.549   2.718  -0.075  0.00  0.00    +0.244 C 
ATOM      8  N   LIG    1       -1.792   3.695  -0.613  0.00  0.00    -0.311 N 
ATOM      9  H   LIG    1       -0.874   3.456  -0.960  0.00  0.00    +0.149 HD
ATOM     10  O   LIG    1       -3.692   2.915   0.345  0.00  0.00    -0.270 OA
BRANCH   8  11
ATOM     11  C   LIG    1       -2.188   5.097  -0.742  0.00  0.00    +0.115 C 
BRANCH  11  12
ATOM     12  C   LIG    1       -2.116   5.872   0.587  0.00  0.00    +0.084 C 
BRANCH  12  13
ATOM     13  S   LIG    1       -2.582   7.602   0.311  0.00  0.00    -0.177 S 
ATOM     14  H   LIG    1       -2.425   7.992   1.579  0.00  0.00    +0.102 HD
ENDBRANCH  12  13
ENDBRANCH  11  12
ENDBRANCH   8  11
ENDBRANCH   3   7
BRANCH   5  15
ATOM     15  C   LIG    1        1.521  -0.315  -0.164  0.00  0.00    +0.244 C 
ATOM     16  N   LIG    1        1.970  -1.550  -0.464  0.00  0.00    -0.311 N 
ATOM     17  H   LIG    1        1.293  -2.282  -0.620  0.00  0.00    +0.149 HD
ATOM     18  O   LIG    1        2.275   0.645   0.012  0.00  0.00    -0.270 OA
BRANCH  16  19
ATOM     19  C   LIG    1        3.376  -1.929  -0.600  0.00  0.00    +0.115 C 
BRANCH  19  20
ATOM     20  C   LIG    1        4.103  -2.068   0.750  0.00  0.00    +0.084 C 
BRANCH  20  21
ATOM     21  S   LIG    1        5.819  -2.582   0.468  0.00  0.00    -0.177 S 
ATOM     22  H   LIG    1        6.176  -2.594   1.756  0.00  0.00    +0.102 HD
ENDBRANCH  20  21
ENDBRANCH  19  20
ENDBRANCH  16  19
ENDBRANCH   5  15
TORSDOF 8
