REMARK  Name = DB12314
REMARK                            x       y       z     vdW  Elec       q    Type
REMARK                         _______ _______ _______ _____ _____    ______ ____
ROOT
ATOM      1  C   LIG    1       -0.610  -1.372  -0.082  0.00  0.00    +0.277 C 
ENDROOT
BRANCH   1   2
ATOM      2  N   LIG    1       -1.892  -1.087   0.152  0.00  0.00    -0.275 NA
ATOM      3  H   LIG    1       -2.572  -1.833   0.188  0.00  0.00    +0.123 HD
ATOM      4  H   LIG    1       -2.180  -0.130   0.301  0.00  0.00    +0.123 HD
ENDBRANCH   1   2
BRANCH   1   5
ATOM      5  N   LIG    1       -0.187  -2.640  -0.282  0.00  0.00    -0.292 N 
ATOM      6  H   LIG    1        0.759  -2.718  -0.625  0.00  0.00    +0.151 HD
BRANCH   5  11
ATOM      7  C   LIG    1       -2.391  -6.245  -0.144  0.00  0.00    +0.059 A 
ATOM      8 CL   LIG    1       -3.296  -7.716  -0.053  0.00  0.00    -0.082 Cl
ATOM      9  C   LIG    1       -2.316  -5.428   0.986  0.00  0.00    +0.023 A 
ATOM     10  C   LIG    1       -1.596  -4.234   0.947  0.00  0.00    +0.024 A 
ATOM     11  C   LIG    1       -0.950  -3.847  -0.232  0.00  0.00    +0.032 A 
ATOM     12  C   LIG    1       -1.012  -4.668  -1.360  0.00  0.00    +0.044 A 
ATOM     13  C   LIG    1       -1.734  -5.864  -1.322  0.00  0.00    +0.061 A 
ATOM     14 CL   LIG    1       -1.795  -6.848  -2.743  0.00  0.00    -0.082 Cl
ENDBRANCH   5  11
ENDBRANCH   1   5
BRANCH   1  15
ATOM     15  N   LIG    1        0.196  -0.295  -0.132  0.00  0.00    -0.236 N 
ATOM     16  H   LIG    1       -0.293   0.587  -0.171  0.00  0.00    +0.262 HD
BRANCH  15  17
ATOM     17  C   LIG    1        1.597  -0.106  -0.234  0.00  0.00    +0.382 C 
ATOM     18  N   LIG    1        2.027   1.009  -0.645  0.00  0.00    -0.130 NA
ATOM     19  H   LIG    1        1.293   1.662  -0.878  0.00  0.00    +0.306 HD
BRANCH  17  20
ATOM     20  N   LIG    1        2.400  -1.210   0.181  0.00  0.00    -0.274 N 
ATOM     21  H   LIG    1        2.044  -1.760   0.949  0.00  0.00    +0.258 HD
BRANCH  20  22
ATOM     22  C   LIG    1        3.861  -1.135   0.170  0.00  0.00    +0.139 C 
ATOM     23  C   LIG    1        4.373  -0.430   1.441  0.00  0.00    +0.047 C 
ATOM     24  C   LIG    1        4.413  -2.564   0.045  0.00  0.00    +0.047 C 
ENDBRANCH  20  22
ENDBRANCH  17  20
ENDBRANCH  15  17
ENDBRANCH   1  15
TORSDOF 7
