REMARK  Name = DB12311
REMARK                            x       y       z     vdW  Elec       q    Type
REMARK                         _______ _______ _______ _____ _____    ______ ____
ROOT
ATOM      1  C   LIG    1        1.358   0.141   0.030  0.00  0.00    +0.033 A 
ATOM      2  C   LIG    1        2.077   1.319  -0.222  0.00  0.00    +0.024 A 
ATOM      3  C   LIG    1        3.469   1.301  -0.222  0.00  0.00    +0.015 A 
ATOM      4  C   LIG    1        4.174   0.112   0.028  0.00  0.00    +0.037 A 
ATOM      5  C   LIG    1        3.445  -1.059   0.274  0.00  0.00    +0.015 A 
ATOM      6  C   LIG    1        2.053  -1.044   0.276  0.00  0.00    +0.024 A 
ENDROOT
BRANCH   1   9
ATOM      7  C   LIG    1       -2.433   0.515  -0.011  0.00  0.00    +0.109 C 
ATOM      8  C   LIG    1       -0.988   0.993  -0.119  0.00  0.00    +0.214 C 
ATOM      9  N   LIG    1       -0.047   0.041   0.059  0.00  0.00    -0.286 N 
ATOM     10  H   LIG    1       -0.390  -0.889   0.247  0.00  0.00    +0.155 HD
ATOM     11  O   LIG    1       -0.775   2.181  -0.353  0.00  0.00    -0.276 OA
ENDBRANCH   1   9
BRANCH   4  12
ATOM     12  C   LIG    1        5.689   0.068   0.032  0.00  0.00    +0.244 C 
ATOM     13  N   LIG    1        6.326   1.259  -0.007  0.00  0.00    -0.307 N 
ATOM     14  H   LIG    1        5.745   2.084  -0.040  0.00  0.00    +0.150 HD
ATOM     15  O   LIG    1        6.286  -1.009   0.080  0.00  0.00    -0.270 OA
BRANCH  13  16
ATOM     16  C   LIG    1        7.774   1.528  -0.012  0.00  0.00    +0.026 C 
ATOM     17  C   LIG    1        8.451   1.002   1.278  0.00  0.00    +0.031 C 
ATOM     18  C   LIG    1        8.457   0.911  -1.257  0.00  0.00    +0.031 C 
ATOM     19  C   LIG    1        7.958   3.060  -0.065  0.00  0.00    +0.031 C 
ENDBRANCH  13  16
ENDBRANCH   4  12
TORSDOF 3
