REMARK  Name = DB12896
REMARK                            x       y       z     vdW  Elec       q    Type
REMARK                         _______ _______ _______ _____ _____    ______ ____
ROOT
ATOM      1  C   LIG    1        1.682  -0.151   0.236  0.00  0.00    +0.262 C 
ATOM      2  O   LIG    1        2.337   0.997   0.726  0.00  0.00    -0.345 OA
ATOM      3  C   LIG    1        3.496   1.253  -0.049  0.00  0.00    +0.180 C 
ATOM      4  C   LIG    1        3.970   2.710  -0.080  0.00  0.00    +0.206 C 
ATOM      5  O   LIG    1        5.103   2.773  -0.944  0.00  0.00    -0.284 OA
ATOM      6  P   LIG    1        4.958   2.208  -2.480  0.00  0.00    +0.478 P 
ATOM      7  O   LIG    1        4.092   0.823  -2.332  0.00  0.00    -0.277 OA
ATOM      8  O   LIG    1        6.249   2.053  -3.204  0.00  0.00    -0.227 OA
ATOM      9  C   LIG    1        3.001   0.852  -1.424  0.00  0.00    +0.202 C 
ATOM     10  C   LIG    1        2.308  -0.471  -1.150  0.00  0.00    +0.182 C 
ATOM     11  F   LIG    1        3.225  -1.430  -0.986  0.00  0.00    -0.235 F 
ATOM     12  C   LIG    1        1.340  -0.974  -2.241  0.00  0.00    +0.055 C 
ENDROOT
BRANCH   1  18
ATOM     13  C   LIG    1       -2.721   1.897  -0.362  0.00  0.00    +0.248 A 
ATOM     14  N   LIG    1       -2.292   3.071  -0.910  0.00  0.00    -0.178 NA
ATOM     15  C   LIG    1       -0.951   3.226  -1.064  0.00  0.00    +0.218 A 
ATOM     16  N   LIG    1        0.025   2.340  -0.730  0.00  0.00    -0.195 NA
ATOM     17  C   LIG    1       -0.440   1.201  -0.196  0.00  0.00    +0.171 A 
ATOM     18  N   LIG    1        0.249   0.086   0.256  0.00  0.00    -0.285 N 
ATOM     19  C   LIG    1       -0.738  -0.780   0.691  0.00  0.00    +0.203 A 
ATOM     20  N   LIG    1       -1.964  -0.335   0.575  0.00  0.00    -0.229 NA
ATOM     21  C   LIG    1       -1.807   0.904   0.020  0.00  0.00    +0.169 A 
BRANCH  15  22
ATOM     22  N   LIG    1       -0.527   4.424  -1.629  0.00  0.00    -0.327 N 
ATOM     23  H   LIG    1        0.460   4.582  -1.770  0.00  0.00    +0.145 HD
ATOM     24  H   LIG    1       -1.215   5.112  -1.896  0.00  0.00    +0.145 HD
ENDBRANCH  15  22
BRANCH  13  25
ATOM     25  O   LIG    1       -4.067   1.644  -0.169  0.00  0.00    -0.475 OA
BRANCH  25  27
ATOM     26  C   LIG    1       -6.427   2.100  -0.279  0.00  0.00    +0.048 C 
ATOM     27  C   LIG    1       -5.018   2.639  -0.544  0.00  0.00    +0.227 C 
ENDBRANCH  25  27
ENDBRANCH  13  25
ENDBRANCH   1  18
BRANCH   6  28
ATOM     28  O   LIG    1        3.919   3.246  -3.192  0.00  0.00    -0.284 OA
BRANCH  28  29
ATOM     29  C   LIG    1        4.311   4.574  -3.499  0.00  0.00    +0.124 C 
ATOM     30  C   LIG    1        4.375   4.716  -5.026  0.00  0.00    +0.038 C 
ATOM     31  C   LIG    1        3.292   5.529  -2.861  0.00  0.00    +0.038 C 
ENDBRANCH  28  29
ENDBRANCH   6  28
TORSDOF 6
