REMARK  Name = DB12131
REMARK                            x       y       z     vdW  Elec       q    Type
REMARK                         _______ _______ _______ _____ _____    ______ ____
ROOT
ATOM      1  C   LIG    1       -2.206  -1.065   0.031  0.00  0.00    -0.016 C 
ATOM      2  C   LIG    1       -2.764   0.267   0.665  0.00  0.00    -0.010 C 
ATOM      3  N   LIG    1       -4.209   0.613   0.192  0.00  0.00    +0.386 N 
ATOM      4  H   LIG    1       -4.806  -0.088   0.607  0.00  0.00    -0.081 HD
ATOM      5  C   LIG    1       -4.639   1.985   0.777  0.00  0.00    -0.073 C 
ATOM      6  C   LIG    1       -3.766   3.157   0.235  0.00  0.00    +0.019 C 
ATOM      7  C   LIG    1       -2.299   2.751   0.132  0.00  0.00    -0.022 A 
ATOM      8  C   LIG    1       -1.129   3.495  -0.214  0.00  0.00    +0.004 A 
ATOM      9  C   LIG    1       -0.022   2.579  -0.239  0.00  0.00    +0.054 A 
ATOM     10  N   LIG    1       -0.511   1.320   0.130  0.00  0.00    -0.309 N 
ATOM     11  C   LIG    1        0.093   0.039   0.318  0.00  0.00    +0.128 C 
ATOM     12  C   LIG    1        1.262   3.014  -0.611  0.00  0.00    +0.027 A 
ATOM     13  C   LIG    1        1.430   4.364  -0.914  0.00  0.00    +0.002 A 
ATOM     14  C   LIG    1        0.372   5.264  -0.870  0.00  0.00    +0.001 A 
ATOM     15  C   LIG    1       -0.910   4.845  -0.529  0.00  0.00    +0.010 A 
ATOM     16  C   LIG    1       -4.433   0.500  -1.335  0.00  0.00    -0.078 C 
ATOM     17  C   LIG    1       -3.983  -0.881  -1.829  0.00  0.00    -0.018 C 
ATOM     18  C   LIG    1       -1.875   1.453   0.304  0.00  0.00    +0.016 A 
ATOM     19  C   LIG    1       -0.684  -1.077   0.256  0.00  0.00    +0.012 C 
ATOM     20  C   LIG    1       -2.505  -1.135  -1.495  0.00  0.00    +0.008 C 
ENDROOT
BRANCH   1  22
ATOM     21  C   LIG    1       -2.521  -3.687   0.284  0.00  0.00    +0.004 C 
ATOM     22  C   LIG    1       -2.837  -2.270   0.804  0.00  0.00    +0.006 C 
ENDBRANCH   1  22
BRANCH  11  23
ATOM     23  C   LIG    1        1.539  -0.078   0.579  0.00  0.00    +0.356 C 
ATOM     24  O   LIG    1        2.163   0.754   1.244  0.00  0.00    -0.243 OA
BRANCH  23  25
ATOM     25  O   LIG    1        2.104  -1.184   0.029  0.00  0.00    -0.460 OA
BRANCH  25  26
ATOM     26  C   LIG    1        3.491  -1.454   0.190  0.00  0.00    +0.229 C 
ATOM     27  C   LIG    1        3.840  -2.764  -0.524  0.00  0.00    +0.048 C 
ENDBRANCH  25  26
ENDBRANCH  23  25
ENDBRANCH  11  23
TORSDOF 4
