REMARK  Name = DB12479
REMARK                            x       y       z     vdW  Elec       q    Type
REMARK                         _______ _______ _______ _____ _____    ______ ____
ROOT
ATOM      1  C   LIG    1        1.595   0.079   0.665  0.00  0.00    +0.160 A 
ATOM      2  N   LIG    1        2.207   1.260   0.390  0.00  0.00    -0.211 NA
ATOM      3  C   LIG    1        3.544   1.288   0.138  0.00  0.00    +0.147 A 
ATOM      4  N   LIG    1        4.162   2.531  -0.156  0.00  0.00    -0.328 N 
ATOM      5  C   LIG    1        5.536   2.579  -0.334  0.00  0.00    +0.106 A 
ATOM      6  C   LIG    1        6.373   1.509  -0.318  0.00  0.00    +0.122 A 
ATOM      7  C   LIG    1        5.827   0.153  -0.082  0.00  0.00    +0.205 A 
ATOM      8  O   LIG    1        6.507  -0.875  -0.074  0.00  0.00    -0.286 OA
ATOM      9  C   LIG    1        4.340   0.122   0.167  0.00  0.00    +0.068 A 
ATOM     10  C   LIG    1        3.693  -1.090   0.447  0.00  0.00    +0.057 A 
ATOM     11  C   LIG    1        2.320  -1.124   0.694  0.00  0.00    +0.164 A 
ATOM     12  F   LIG    1        1.732  -2.316   0.950  0.00  0.00    -0.202 F 
ENDROOT
BRANCH   1  22
ATOM     13  N   LIG    1       -2.945  -0.784   2.299  0.00  0.00    -0.092 NA
ATOM     14  C   LIG    1       -2.027  -0.306   1.552  0.00  0.00    +0.079 C 
ATOM     15  C   LIG    1       -2.083   0.934   0.641  0.00  0.00    -0.001 C 
ATOM     16  C   LIG    1       -2.553   2.269   1.263  0.00  0.00    -0.070 C 
ATOM     17  N   LIG    1       -3.816   2.242   0.404  0.00  0.00    +0.380 N 
ATOM     18  H   LIG    1       -4.637   1.990   0.936  0.00  0.00    -0.086 HD
ATOM     19  H   LIG    1       -3.940   3.072  -0.158  0.00  0.00    -0.086 HD
ATOM     20  C   LIG    1       -3.240   1.059  -0.374  0.00  0.00    -0.070 C 
ATOM     21  C   LIG    1       -0.678   0.959   0.041  0.00  0.00    +0.116 C 
ATOM     22  N   LIG    1        0.207   0.166   0.879  0.00  0.00    -0.306 N 
ATOM     23  C   LIG    1       -0.651  -0.915   1.357  0.00  0.00    +0.161 C 
BRANCH  13  25
ATOM     24  C   LIG    1       -5.088  -0.645   3.112  0.00  0.00    +0.313 C 
ATOM     25  O   LIG    1       -4.131  -0.034   2.262  0.00  0.00    -0.397 OA
ENDBRANCH  13  25
ENDBRANCH   1  22
BRANCH   4  26
ATOM     26  C   LIG    1        3.436   3.807  -0.140  0.00  0.00    +0.089 C 
ATOM     27  C   LIG    1        3.500   4.673  -1.389  0.00  0.00    +0.027 C 
ATOM     28  C   LIG    1        2.226   3.959  -1.052  0.00  0.00    +0.027 C 
ENDBRANCH   4  26
BRANCH   6  29
ATOM     29  C   LIG    1        7.868   1.840  -0.550  0.00  0.00    +0.342 C 
ATOM     30  O   LIG    1        8.166   2.167  -1.722  0.00  0.00    -0.245 OA
BRANCH  29  31
ATOM     31  O   LIG    1        8.592   1.725   0.465  0.00  0.00    -0.477 OA
ATOM     32  H   LIG    1        8.215   1.467   1.283  0.00  0.00    +0.295 HD
ENDBRANCH  29  31
ENDBRANCH   6  29
TORSDOF 5
