REMARK  Name = DB12863
REMARK                            x       y       z     vdW  Elec       q    Type
REMARK                         _______ _______ _______ _____ _____    ______ ____
ROOT
ATOM      1  N   LIG    1        1.730  -0.235  -0.020  0.00  0.00    -0.216 N 
ATOM      2  H   LIG    1        2.261   0.624  -0.006  0.00  0.00    +0.174 HD
ENDROOT
BRANCH   1   3
ATOM      3  C   LIG    1        2.455  -1.441   0.065  0.00  0.00    +0.060 A 
ATOM      4  C   LIG    1        3.870  -1.434   0.183  0.00  0.00    +0.059 A 
ATOM      5  C   LIG    1        4.545  -2.668   0.231  0.00  0.00    +0.015 A 
ATOM      6  C   LIG    1        3.855  -3.874   0.172  0.00  0.00    +0.001 A 
ATOM      7  C   LIG    1        2.470  -3.875   0.064  0.00  0.00    +0.002 A 
ATOM      8  C   LIG    1        1.778  -2.669   0.010  0.00  0.00    +0.025 A 
BRANCH   4   9
ATOM      9  C   LIG    1        4.676  -0.146   0.283  0.00  0.00    +0.246 C 
ATOM     10  N   LIG    1        5.933  -0.190  -0.205  0.00  0.00    -0.301 N 
ATOM     11  H   LIG    1        6.281  -1.072  -0.551  0.00  0.00    +0.150 HD
ATOM     12  O   LIG    1        4.194   0.875   0.779  0.00  0.00    -0.270 OA
BRANCH  10  13
ATOM     13  C   LIG    1        6.888   0.932  -0.222  0.00  0.00    +0.225 C 
BRANCH  13  14
ATOM     14  C   LIG    1        6.665   1.973  -1.352  0.00  0.00    +0.322 C 
ATOM     15  O   LIG    1        7.338   3.025  -1.266  0.00  0.00    -0.249 OA
BRANCH  14  16
ATOM     16  O   LIG    1        5.868   1.732  -2.291  0.00  0.00    -0.480 OA
ATOM     17  H   LIG    1        5.390   0.926  -2.303  0.00  0.00    +0.295 HD
ENDBRANCH  14  16
ENDBRANCH  13  14
ENDBRANCH  10  13
ENDBRANCH   4   9
ENDBRANCH   1   3
BRANCH   1  18
ATOM     18  S   LIG    1       -0.040  -0.109  -0.011  0.00  0.00    +0.072 S 
ATOM     19  O   LIG    1       -0.520  -0.699  -1.266  0.00  0.00    -0.150 OA
ATOM     20  O   LIG    1       -0.497  -0.635   1.281  0.00  0.00    -0.150 OA
BRANCH  18  24
ATOM     21  C   LIG    1       -0.854   4.388  -0.080  0.00  0.00    +0.132 A 
ATOM     22  C   LIG    1       -0.551   3.750   1.125  0.00  0.00    +0.048 A 
ATOM     23  C   LIG    1       -0.305   2.380   1.143  0.00  0.00    +0.032 A 
ATOM     24  C   LIG    1       -0.373   1.648  -0.044  0.00  0.00    +0.109 A 
ATOM     25  C   LIG    1       -0.678   2.282  -1.250  0.00  0.00    +0.032 A 
ATOM     26  C   LIG    1       -0.925   3.652  -1.266  0.00  0.00    +0.048 A 
BRANCH  21  27
ATOM     27  O   LIG    1       -1.118   5.738  -0.089  0.00  0.00    -0.425 OA
BRANCH  27  28
ATOM     28  C   LIG    1       -0.113   6.621  -0.371  0.00  0.00    +0.318 C 
ATOM     29  O   LIG    1        1.056   6.314  -0.627  0.00  0.00    -0.250 OA
BRANCH  28  31
ATOM     30  C   LIG    1       -1.726   8.305  -1.370  0.00  0.00    +0.022 C 
ATOM     31  C   LIG    1       -0.589   8.100  -0.337  0.00  0.00    +0.060 C 
ATOM     32  C   LIG    1       -1.096   8.446   1.086  0.00  0.00    +0.022 C 
ATOM     33  C   LIG    1        0.574   9.065  -0.690  0.00  0.00    +0.022 C 
ENDBRANCH  28  31
ENDBRANCH  27  28
ENDBRANCH  21  27
ENDBRANCH  18  24
ENDBRANCH   1  18
TORSDOF 10
