REMARK  Name = DB12806
REMARK                            x       y       z     vdW  Elec       q    Type
REMARK                         _______ _______ _______ _____ _____    ______ ____
ROOT
ATOM      1  C   LIG    1       -3.311   2.766   0.410  0.00  0.00    -0.047 C 
ATOM      2  N   LIG    1       -2.567   1.427   0.583  0.00  0.00    +0.383 N 
ATOM      3  H   LIG    1       -2.797   0.863  -0.224  0.00  0.00    -0.081 HD
ATOM      4  C   LIG    1       -3.197   0.770   1.827  0.00  0.00    -0.078 C 
ATOM      5  C   LIG    1       -4.619   1.339   1.917  0.00  0.00    -0.020 C 
ATOM      6  C   LIG    1       -4.740   2.413   0.838  0.00  0.00    -0.015 C 
ENDROOT
BRANCH   1   7
ATOM      7  C   LIG    1       -3.188   3.509  -0.946  0.00  0.00    +0.132 C 
BRANCH   7  13
ATOM      8  C   LIG    1       -5.118   0.592  -6.409  0.00  0.00    +0.001 A 
ATOM      9  C   LIG    1       -3.964   0.455  -5.638  0.00  0.00    +0.010 A 
ATOM     10  C   LIG    1       -3.829   1.163  -4.436  0.00  0.00    +0.011 A 
ATOM     11  C   LIG    1       -2.654   1.064  -3.556  0.00  0.00    +0.074 A 
ATOM     12  N   LIG    1       -2.513   1.800  -2.518  0.00  0.00    -0.172 NA
ATOM     13  N   LIG    1       -3.507   2.697  -2.140  0.00  0.00    -0.230 N 
ATOM     14  C   LIG    1       -4.730   2.878  -2.761  0.00  0.00    +0.275 A 
ATOM     15  O   LIG    1       -5.616   3.627  -2.340  0.00  0.00    -0.266 OA
ATOM     16  C   LIG    1       -4.855   2.043  -4.031  0.00  0.00    +0.050 A 
ATOM     17  C   LIG    1       -6.015   2.163  -4.808  0.00  0.00    +0.014 A 
ATOM     18  C   LIG    1       -6.144   1.438  -5.992  0.00  0.00    +0.001 A 
BRANCH  11  19
ATOM     19  C   LIG    1       -1.530   0.059  -3.826  0.00  0.00    +0.093 C 
BRANCH  19  20
ATOM     20  C   LIG    1       -0.455   0.559  -4.788  0.00  0.00    -0.041 A 
ATOM     21  C   LIG    1       -0.265  -0.078  -6.018  0.00  0.00    +0.005 A 
ATOM     22  C   LIG    1        0.735   0.360  -6.882  0.00  0.00    +0.020 A 
ATOM     23  C   LIG    1        1.550   1.430  -6.514  0.00  0.00    +0.041 A 
ATOM     24 CL   LIG    1        2.791   1.969  -7.584  0.00  0.00    -0.084 Cl
ATOM     25  C   LIG    1        1.371   2.065  -5.287  0.00  0.00    +0.020 A 
ATOM     26  C   LIG    1        0.370   1.629  -4.424  0.00  0.00    +0.005 A 
ENDBRANCH  19  20
ENDBRANCH  11  19
ENDBRANCH   7  13
ENDBRANCH   1   7
BRANCH   2  27
ATOM     27  C   LIG    1       -1.031   1.564   0.631  0.00  0.00    -0.078 C 
BRANCH  27  28
ATOM     28  C   LIG    1       -0.374   0.176   0.519  0.00  0.00    -0.018 C 
BRANCH  28  29
ATOM     29  C   LIG    1        1.150   0.225   0.302  0.00  0.00    +0.003 C 
BRANCH  29  30
ATOM     30  C   LIG    1        1.565   0.771  -1.079  0.00  0.00    +0.035 C 
BRANCH  30  31
ATOM     31  C   LIG    1        3.067   0.730  -1.309  0.00  0.00    -0.047 A 
ATOM     32  C   LIG    1        3.634  -0.307  -2.053  0.00  0.00    +0.007 A 
ATOM     33  C   LIG    1        5.011  -0.344  -2.260  0.00  0.00    +0.046 A 
ATOM     34  C   LIG    1        5.833   0.658  -1.720  0.00  0.00    +0.121 A 
ATOM     35  C   LIG    1        5.255   1.694  -0.986  0.00  0.00    +0.046 A 
ATOM     36  C   LIG    1        3.879   1.734  -0.779  0.00  0.00    +0.007 A 
BRANCH  34  37
ATOM     37  O   LIG    1        7.206   0.700  -1.862  0.00  0.00    -0.492 OA
BRANCH  37  38
ATOM     38  C   LIG    1        7.876  -0.362  -2.537  0.00  0.00    +0.227 C 
BRANCH  38  39
ATOM     39  C   LIG    1        9.393  -0.157  -2.411  0.00  0.00    +0.022 C 
BRANCH  39  40
ATOM     40  C   LIG    1        9.869  -0.175  -0.944  0.00  0.00    -0.076 C 
BRANCH  40  41
ATOM     41  N   LIG    1       11.414  -0.096  -0.828  0.00  0.00    +0.380 N 
ATOM     42  H   LIG    1       11.763  -0.869  -1.377  0.00  0.00    -0.082 HD
ATOM     43  C   LIG    1       11.983   1.182  -1.497  0.00  0.00    -0.079 C 
ATOM     44  C   LIG    1       13.418   1.558  -1.083  0.00  0.00    -0.019 C 
ATOM     45  C   LIG    1       13.491   2.378   0.220  0.00  0.00    -0.002 C 
ATOM     46  C   LIG    1       13.202   1.613   1.524  0.00  0.00    -0.002 C 
ATOM     47  C   LIG    1       11.890   0.809   1.561  0.00  0.00    -0.019 C 
ATOM     48  C   LIG    1       11.888  -0.405   0.613  0.00  0.00    -0.079 C 
ENDBRANCH  40  41
ENDBRANCH  39  40
ENDBRANCH  38  39
ENDBRANCH  37  38
ENDBRANCH  34  37
ENDBRANCH  30  31
ENDBRANCH  29  30
ENDBRANCH  28  29
ENDBRANCH  27  28
ENDBRANCH   2  27
TORSDOF 14
