REMARK  Name = DB12327
REMARK                            x       y       z     vdW  Elec       q    Type
REMARK                         _______ _______ _______ _____ _____    ______ ____
ROOT
ATOM      1  C   LIG    1        1.396   0.095  -0.186  0.00  0.00    +0.243 C 
ATOM      2  C   LIG    1        1.733   0.639  -1.599  0.00  0.00    +0.178 C 
ATOM      3  O   LIG    1        0.891   1.098  -2.371  0.00  0.00    -0.293 OA
ATOM      4  C   LIG    1        3.250   0.543  -1.918  0.00  0.00    +0.073 C 
ATOM      5  C   LIG    1        3.770   1.444  -3.115  0.00  0.00    -0.005 C 
ATOM      6  C   LIG    1        3.095   1.095  -4.484  0.00  0.00    +0.013 C 
ATOM      7  C   LIG    1        3.564   2.947  -2.784  0.00  0.00    +0.058 C 
ATOM      8  C   LIG    1        4.110   3.832  -3.928  0.00  0.00    +0.210 C 
ATOM      9  O   LIG    1        5.446   3.504  -4.352  0.00  0.00    -0.456 OA
ATOM     10  C   LIG    1        6.029   2.274  -4.128  0.00  0.00    +0.311 C 
ATOM     11  O   LIG    1        7.064   2.055  -4.755  0.00  0.00    -0.250 OA
ATOM     12  C   LIG    1        5.324   1.306  -3.136  0.00  0.00    +0.105 C 
ATOM     13  C   LIG    1        5.777  -0.159  -3.299  0.00  0.00    +0.016 C 
ATOM     14  C   LIG    1        5.312  -0.974  -2.076  0.00  0.00    +0.009 C 
ATOM     15  C   LIG    1        3.767  -0.962  -1.838  0.00  0.00    -0.009 C 
ATOM     16  C   LIG    1        3.101  -1.907  -2.892  0.00  0.00    +0.013 C 
ATOM     17  C   LIG    1        3.439  -1.445  -0.364  0.00  0.00    +0.108 C 
ATOM     18  C   LIG    1        1.918  -1.350  -0.050  0.00  0.00    +0.067 C 
ENDROOT
BRANCH   8  19
ATOM     19  C   LIG    1        4.024   5.316  -3.636  0.00  0.00    +0.030 A 
ATOM     20  C   LIG    1        4.364   5.988  -2.463  0.00  0.00    +0.202 A 
ATOM     21  O   LIG    1        4.137   7.322  -2.564  0.00  0.00    -0.471 OA
ATOM     22  C   LIG    1        3.641   7.530  -3.806  0.00  0.00    +0.195 A 
ATOM     23  C   LIG    1        3.554   6.327  -4.484  0.00  0.00    +0.048 A 
ENDBRANCH   8  19
BRANCH  17  24
ATOM     24  C   LIG    1        3.971  -2.860  -0.021  0.00  0.00    +0.311 C 
ATOM     25  O   LIG    1        3.281  -3.874  -0.157  0.00  0.00    -0.251 OA
BRANCH  24  26
ATOM     26  O   LIG    1        5.226  -2.827   0.476  0.00  0.00    -0.468 OA
ATOM     27  C   LIG    1        5.886  -4.027   0.851  0.00  0.00    +0.280 C 
ENDBRANCH  24  26
ENDBRANCH  17  24
BRANCH   1  28
ATOM     28  O   LIG    1        0.003   0.147   0.165  0.00  0.00    -0.454 OA
BRANCH  28  30
ATOM     29  C   LIG    1       -2.165   1.063   0.611  0.00  0.00    +0.136 C 
ATOM     30  C   LIG    1       -0.694   1.306   0.305  0.00  0.00    +0.305 C 
ATOM     31  O   LIG    1       -0.236   2.446   0.220  0.00  0.00    -0.251 OA
ENDBRANCH  28  30
ENDBRANCH   1  28
TORSDOF 5
