REMARK  Name = DB12565
REMARK                            x       y       z     vdW  Elec       q    Type
REMARK                         _______ _______ _______ _____ _____    ______ ____
ROOT
ATOM      1  C   LIG    1       -0.955   0.250  -0.103  0.00  0.00    +0.280 C 
ATOM      2  N   LIG    1       -0.223  -0.803  -0.517  0.00  0.00    -0.306 N 
ATOM      3  H   LIG    1       -0.707  -1.605  -0.895  0.00  0.00    +0.149 HD
ATOM      4  O   LIG    1       -0.466   1.284   0.353  0.00  0.00    -0.267 OA
ENDROOT
BRANCH   1   6
ATOM      5  C   LIG    1       -3.443   0.941   0.131  0.00  0.00    -0.006 A 
ATOM      6  C   LIG    1       -2.388   0.087  -0.236  0.00  0.00    +0.192 A 
ATOM      7  O   LIG    1       -2.855  -1.062  -0.817  0.00  0.00    -0.450 OA
ATOM      8  C   LIG    1       -4.212  -0.968  -0.833  0.00  0.00    +0.136 A 
ATOM      9  C   LIG    1       -5.094  -1.929  -1.342  0.00  0.00    +0.047 A 
ATOM     10  C   LIG    1       -6.456  -1.638  -1.263  0.00  0.00    +0.004 A 
ATOM     11  C   LIG    1       -6.910  -0.443  -0.701  0.00  0.00    +0.001 A 
ATOM     12  C   LIG    1       -6.019   0.509  -0.196  0.00  0.00    +0.012 A 
ATOM     13  C   LIG    1       -4.639   0.248  -0.260  0.00  0.00    +0.022 A 
BRANCH   5  14
ATOM     14  C   LIG    1       -3.401   2.302   0.808  0.00  0.00    -0.039 C 
BRANCH  14  16
ATOM     15  C   LIG    1       -2.480   3.494  -1.293  0.00  0.00    -0.096 C 
ATOM     16  N   LIG    1       -3.601   3.425  -0.235  0.00  0.00    +0.379 N 
ATOM     17  H   LIG    1       -4.463   3.222  -0.723  0.00  0.00    -0.082 HD
ATOM     18  C   LIG    1       -3.789   4.794   0.448  0.00  0.00    -0.096 C 
ENDBRANCH  14  16
ENDBRANCH   5  14
ENDBRANCH   1   6
BRANCH   2  19
ATOM     19  C   LIG    1        1.239  -0.887  -0.483  0.00  0.00    +0.145 C 
BRANCH  19  20
ATOM     20  C   LIG    1        1.802  -1.379   0.863  0.00  0.00    +0.247 C 
BRANCH  20  21
ATOM     21  O   LIG    1        1.454  -0.466   1.901  0.00  0.00    -0.490 OA
BRANCH  21  22
ATOM     22  C   LIG    1        1.835  -0.735   3.201  0.00  0.00    +0.121 A 
ATOM     23  C   LIG    1        1.424   0.178   4.170  0.00  0.00    +0.046 A 
ATOM     24  C   LIG    1        1.759  -0.009   5.508  0.00  0.00    +0.017 A 
ATOM     25  C   LIG    1        2.518  -1.121   5.907  0.00  0.00    +0.039 A 
ATOM     26  C   LIG    1        2.932  -2.035   4.927  0.00  0.00    +0.017 A 
ATOM     27  C   LIG    1        2.594  -1.848   3.590  0.00  0.00    +0.046 A 
BRANCH  25  28
ATOM     28  C   LIG    1        2.902  -1.348   7.357  0.00  0.00    +0.267 C 
ATOM     29  N   LIG    1        2.363  -0.509   8.262  0.00  0.00    -0.193 N 
ATOM     30  H   LIG    1        1.884   0.351   8.040  0.00  0.00    +0.183 HD
ATOM     31  O   LIG    1        3.651  -2.280   7.668  0.00  0.00    -0.268 OA
BRANCH  29  32
ATOM     32  O   LIG    1        2.915  -0.500   9.548  0.00  0.00    -0.295 OA
ATOM     33  H   LIG    1        3.769  -0.920   9.421  0.00  0.00    +0.241 HD
ENDBRANCH  29  32
ENDBRANCH  25  28
ENDBRANCH  21  22
ENDBRANCH  20  21
ENDBRANCH  19  20
ENDBRANCH   2  19
TORSDOF 9
