REMARK  Name = DB12027
REMARK                            x       y       z     vdW  Elec       q    Type
REMARK                         _______ _______ _______ _____ _____    ______ ____
ROOT
ATOM      1  C   LIG    1        2.143  -1.405  -0.038  0.00  0.00    +0.027 A 
ATOM      2  C   LIG    1        1.453  -2.540  -0.483  0.00  0.00    +0.025 A 
ATOM      3  C   LIG    1        2.092  -3.777  -0.524  0.00  0.00    +0.025 A 
ATOM      4  C   LIG    1        3.431  -3.893  -0.133  0.00  0.00    +0.028 A 
ATOM      5  C   LIG    1        4.109  -2.765   0.331  0.00  0.00    +0.025 A 
ATOM      6  C   LIG    1        3.471  -1.528   0.371  0.00  0.00    +0.025 A 
ENDROOT
BRANCH   1   7
ATOM      7  N   LIG    1        1.563  -0.126   0.020  0.00  0.00    -0.344 N 
ATOM      8  H   LIG    1        2.003   0.533   0.647  0.00  0.00    +0.146 HD
BRANCH   7   9
ATOM      9  C   LIG    1        0.140   0.075  -0.226  0.00  0.00    +0.106 C 
BRANCH   9  10
ATOM     10  C   LIG    1       -0.294   1.546  -0.139  0.00  0.00    +0.056 C 
BRANCH  10  14
ATOM     11  C   LIG    1       -1.460   1.490  -4.707  0.00  0.00    +0.001 A 
ATOM     12  C   LIG    1       -1.243   1.361  -3.336  0.00  0.00    +0.010 A 
ATOM     13  C   LIG    1       -0.340   2.229  -2.699  0.00  0.00    +0.003 A 
ATOM     14  C   LIG    1        0.115   2.376  -1.339  0.00  0.00    -0.021 A 
ATOM     15  C   LIG    1        1.013   3.427  -1.362  0.00  0.00    +0.087 A 
ATOM     16  N   LIG    1        1.137   3.925  -2.633  0.00  0.00    -0.360 N 
ATOM     17  H   LIG    1        1.749   4.695  -2.859  0.00  0.00    +0.165 HD
ATOM     18  C   LIG    1        0.322   3.219  -3.490  0.00  0.00    +0.047 A 
ATOM     19  C   LIG    1        0.105   3.350  -4.866  0.00  0.00    +0.026 A 
ATOM     20  C   LIG    1       -0.799   2.463  -5.451  0.00  0.00    +0.002 A 
ENDBRANCH  10  14
ENDBRANCH   9  10
ENDBRANCH   7   9
ENDBRANCH   1   7
BRANCH   4  21
ATOM     21  N   LIG    1        4.124  -5.115  -0.140  0.00  0.00    -0.336 N 
ATOM     22  H   LIG    1        4.935  -5.128   0.462  0.00  0.00    +0.147 HD
BRANCH  21  23
ATOM     23  C   LIG    1        3.913  -6.321  -0.830  0.00  0.00    +0.063 C 
ATOM     24  C   LIG    1        3.148  -6.411  -2.006  0.00  0.00    +0.040 C 
ATOM     25  C   LIG    1        3.002  -7.646  -2.643  0.00  0.00    +0.077 C 
ATOM     26  N   LIG    1        3.608  -8.732  -2.127  0.00  0.00    -0.307 NA
ATOM     27  H   LIG    1        3.494  -9.618  -2.601  0.00  0.00    +0.123 HD
ATOM     28  C   LIG    1        4.366  -8.693  -1.014  0.00  0.00    +0.077 C 
ATOM     29  C   LIG    1        4.538  -7.478  -0.346  0.00  0.00    +0.040 C 
ENDBRANCH  21  23
ENDBRANCH   4  21
TORSDOF 6
