REMARK  Name = DB12325
REMARK                            x       y       z     vdW  Elec       q    Type
REMARK                         _______ _______ _______ _____ _____    ______ ____
ROOT
ATOM      1  C   LIG    1       -0.421   2.231   1.216  0.00  0.00    +0.080 C 
ATOM      2  N   LIG    1       -0.415   1.749  -0.160  0.00  0.00    -0.300 NA
ATOM      3  H   LIG    1        0.204   2.289  -0.748  0.00  0.00    +0.123 HD
ATOM      4  C   LIG    1       -0.033   0.343  -0.110  0.00  0.00    +0.150 C 
ATOM      5  C   LIG    1       -0.358  -0.141   1.334  0.00  0.00    +0.074 C 
ATOM      6  C   LIG    1       -1.050   1.065   2.036  0.00  0.00    +0.109 C 
ENDROOT
BRANCH   5   7
ATOM      7  C   LIG    1       -1.001  -1.535   1.453  0.00  0.00    -0.004 A 
ATOM      8  C   LIG    1       -2.153  -1.898   0.731  0.00  0.00    +0.145 A 
ATOM      9  F   LIG    1       -2.739  -1.026  -0.122  0.00  0.00    -0.204 F 
ATOM     10  C   LIG    1       -2.700  -3.177   0.874  0.00  0.00    +0.076 A 
ATOM     11 CL   LIG    1       -4.117  -3.628  -0.007  0.00  0.00    -0.081 Cl
ATOM     12  C   LIG    1       -2.104  -4.103   1.730  0.00  0.00    +0.023 A 
ATOM     13  C   LIG    1       -0.958  -3.757   2.440  0.00  0.00    +0.002 A 
ATOM     14  C   LIG    1       -0.409  -2.483   2.299  0.00  0.00    +0.007 A 
ENDBRANCH   5   7
BRANCH   6  15
ATOM     15  C   LIG    1       -0.797   1.083   3.566  0.00  0.00    +0.010 A 
ATOM     16  C   LIG    1       -1.502   0.211   4.418  0.00  0.00    +0.130 A 
ATOM     17  F   LIG    1       -2.425  -0.646   3.923  0.00  0.00    -0.205 F 
ATOM     18  C   LIG    1       -1.264   0.204   5.792  0.00  0.00    +0.058 A 
ATOM     19  C   LIG    1       -0.316   1.062   6.343  0.00  0.00    +0.044 A 
ATOM     20 CL   LIG    1       -0.024   1.052   8.044  0.00  0.00    -0.083 Cl
ATOM     21  C   LIG    1        0.397   1.927   5.517  0.00  0.00    +0.020 A 
ATOM     22  C   LIG    1        0.162   1.934   4.143  0.00  0.00    +0.009 A 
ENDBRANCH   6  15
BRANCH   4  23
ATOM     23  C   LIG    1        1.462   0.130  -0.457  0.00  0.00    +0.235 C 
ATOM     24  N   LIG    1        1.764  -1.069  -0.997  0.00  0.00    -0.281 N 
ATOM     25  H   LIG    1        1.003  -1.679  -1.258  0.00  0.00    +0.155 HD
ATOM     26  O   LIG    1        2.299   1.008  -0.224  0.00  0.00    -0.274 OA
BRANCH  24  27
ATOM     27  C   LIG    1        3.053  -1.505  -1.334  0.00  0.00    +0.076 A 
ATOM     28  C   LIG    1        4.077  -1.633  -0.379  0.00  0.00    +0.142 A 
ATOM     29  C   LIG    1        5.335  -2.096  -0.805  0.00  0.00    +0.062 A 
ATOM     30  C   LIG    1        5.592  -2.450  -2.146  0.00  0.00    +0.062 A 
ATOM     31  C   LIG    1        4.530  -2.325  -3.060  0.00  0.00    +0.017 A 
ATOM     32  C   LIG    1        3.278  -1.865  -2.661  0.00  0.00    +0.028 A 
BRANCH  28  33
ATOM     33  O   LIG    1        3.784  -1.316   0.938  0.00  0.00    -0.493 OA
ATOM     34  C   LIG    1        4.815  -1.352   1.919  0.00  0.00    +0.277 C 
ENDBRANCH  28  33
BRANCH  30  35
ATOM     35  C   LIG    1        6.953  -2.953  -2.585  0.00  0.00    +0.337 C 
ATOM     36  O   LIG    1        7.872  -3.036  -1.734  0.00  0.00    -0.245 OA
BRANCH  35  37
ATOM     37  O   LIG    1        7.122  -3.272  -3.786  0.00  0.00    -0.477 OA
ATOM     38  H   LIG    1        6.413  -3.197  -4.395  0.00  0.00    +0.295 HD
ENDBRANCH  35  37
ENDBRANCH  30  35
ENDBRANCH  24  27
ENDBRANCH   4  23
BRANCH   6  39
ATOM     39  C   LIG    1       -2.518   1.101   1.819  0.00  0.00    +0.076 C 
ATOM     40  N   LIG    1       -3.664   1.138   1.654  0.00  0.00    -0.196 NA
ENDBRANCH   6  39
BRANCH   1  41
ATOM     41  C   LIG    1       -1.100   3.621   1.375  0.00  0.00    +0.026 C 
BRANCH  41  43
ATOM     42  C   LIG    1       -1.186   6.126   1.143  0.00  0.00    +0.010 C 
ATOM     43  C   LIG    1       -0.285   4.883   0.950  0.00  0.00    -0.036 C 
ATOM     44  C   LIG    1        0.973   5.050   1.835  0.00  0.00    +0.010 C 
ATOM     45  C   LIG    1        0.143   4.820  -0.535  0.00  0.00    +0.010 C 
ENDBRANCH  41  43
ENDBRANCH   1  41
TORSDOF 10
