REMARK  Name = DB12695
REMARK                            x       y       z     vdW  Elec       q    Type
REMARK                         _______ _______ _______ _____ _____    ______ ____
ROOT
ATOM      1  C   LIG    1       -1.597   4.031   0.000  0.00  0.00    +0.000 A 
ATOM      2  C   LIG    1       -1.321   3.399  -1.211  0.00  0.00    +0.000 A 
ATOM      3  C   LIG    1       -0.765   2.122  -1.211  0.00  0.00    +0.004 A 
ATOM      4  C   LIG    1       -0.487   1.482   0.000  0.00  0.00    -0.046 A 
ATOM      5  C   LIG    1       -0.765   2.122   1.211  0.00  0.00    +0.004 A 
ATOM      6  C   LIG    1       -1.321   3.399   1.211  0.00  0.00    +0.000 A 
ENDROOT
BRANCH   4   7
ATOM      7  C   LIG    1        0.125   0.089   0.000  0.00  0.00    +0.059 C 
BRANCH   7   8
ATOM      8  C   LIG    1        1.664   0.120  -0.000  0.00  0.00    +0.157 C 
BRANCH   8   9
ATOM      9  N   LIG    1        2.190  -1.215   0.000  0.00  0.00    -0.234 NA
ATOM     10  C   LIG    1        3.256  -1.822   0.000  0.00  0.00    +0.036 C 
ATOM     11  S   LIG    1        4.705  -2.473   0.000  0.00  0.00    +0.020 S 
ENDBRANCH   8   9
ENDBRANCH   7   8
ENDBRANCH   4   7
TORSDOF 3
