REMARK  Name = DB12657
REMARK                            x       y       z     vdW  Elec       q    Type
REMARK                         _______ _______ _______ _____ _____    ______ ____
ROOT
ATOM      1  C   LIG    1       -5.086  -1.190   1.836  0.00  0.00    +0.068 C 
ATOM      2  C   LIG    1       -5.235  -0.231   0.674  0.00  0.00    +0.067 A 
ATOM      3  N   LIG    1       -6.447   0.159   0.344  0.00  0.00    -0.229 NA
ATOM      4  C   LIG    1       -6.296   1.041  -0.678  0.00  0.00    +0.176 A 
ATOM      5  C   LIG    1       -7.232   1.791  -1.446  0.00  0.00    +0.076 A 
ATOM      6  C   LIG    1       -6.699   2.549  -2.504  0.00  0.00    +0.048 A 
ATOM      7  C   LIG    1       -5.328   2.584  -2.736  0.00  0.00    +0.135 A 
ATOM      8  N   LIG    1       -4.416   1.907  -2.003  0.00  0.00    -0.173 NA
ATOM      9  N   LIG    1       -4.932   1.163  -1.008  0.00  0.00    -0.210 N 
ATOM     10  C   LIG    1       -4.242   0.343  -0.134  0.00  0.00    +0.097 A 
ENDROOT
BRANCH   5  11
ATOM     11  N   LIG    1       -8.611   1.736  -1.198  0.00  0.00    -0.323 N 
ATOM     12  C   LIG    1       -9.573   2.396  -2.105  0.00  0.00    +0.133 C 
ATOM     13  C   LIG    1      -11.032   1.933  -1.907  0.00  0.00    +0.178 C 
ATOM     14  O   LIG    1      -11.419   2.113  -0.554  0.00  0.00    -0.377 OA
ATOM     15  C   LIG    1      -10.593   1.369   0.327  0.00  0.00    +0.178 C 
ATOM     16  C   LIG    1       -9.126   1.825   0.185  0.00  0.00    +0.133 C 
ENDBRANCH   5  11
BRANCH  10  17
ATOM     17  C   LIG    1       -2.753   0.171  -0.107  0.00  0.00    +0.020 A 
ATOM     18  C   LIG    1       -1.874   1.242  -0.317  0.00  0.00    +0.121 A 
ATOM     19  N   LIG    1       -0.522   1.119  -0.284  0.00  0.00    -0.259 NA
ATOM     20  C   LIG    1       -0.002  -0.111  -0.033  0.00  0.00    +0.043 A 
ATOM     21  C   LIG    1       -0.801  -1.235   0.190  0.00  0.00    +0.024 A 
ATOM     22  C   LIG    1       -2.188  -1.084   0.153  0.00  0.00    +0.013 A 
BRANCH  20  23
ATOM     23  C   LIG    1        1.517  -0.205  -0.007  0.00  0.00    +0.083 C 
BRANCH  23  24
ATOM     24  C   LIG    1        2.156  -0.037  -1.395  0.00  0.00    +0.165 C 
BRANCH  24  25
ATOM     25  O   LIG    1        3.566  -0.152  -1.263  0.00  0.00    -0.383 OA
ATOM     26  C   LIG    1        4.261  -0.013  -2.493  0.00  0.00    +0.194 C 
ENDBRANCH  24  25
ENDBRANCH  23  24
ENDBRANCH  20  23
ENDBRANCH  10  17
TORSDOF 5
