REMARK  Name = DB12497
REMARK                            x       y       z     vdW  Elec       q    Type
REMARK                         _______ _______ _______ _____ _____    ______ ____
ROOT
ATOM      1  C   LIG    1        1.423  -0.035   0.037  0.00  0.00    +0.201 C 
ENDROOT
BRANCH   1   4
ATOM      2  C   LIG    1       -0.113   2.525   0.028  0.00  0.00    +0.064 C 
ATOM      3  C   LIG    1       -0.814   1.177  -0.007  0.00  0.00    +0.026 A 
ATOM      4  N   LIG    1       -0.042   0.006  -0.004  0.00  0.00    -0.337 N 
ATOM      5  C   LIG    1       -0.791  -1.152  -0.029  0.00  0.00    +0.132 A 
ATOM      6  S   LIG    1       -2.483  -0.812  -0.062  0.00  0.00    -0.082 S 
ATOM      7  C   LIG    1       -2.195   0.921  -0.043  0.00  0.00    +0.007 A 
ATOM      8  C   LIG    1       -3.361   1.884  -0.062  0.00  0.00    +0.053 C 
ENDBRANCH   1   4
BRANCH   1   9
ATOM      9  C   LIG    1        2.020  -0.024   1.461  0.00  0.00    +0.183 C 
ATOM     10  O   LIG    1        1.267  -0.013   2.439  0.00  0.00    -0.290 OA
BRANCH   9  11
ATOM     11  C   LIG    1        3.515  -0.023   1.586  0.00  0.00    +0.019 A 
ATOM     12  C   LIG    1        4.096  -0.007   2.863  0.00  0.00    +0.011 A 
ATOM     13  C   LIG    1        5.481   0.000   3.009  0.00  0.00    +0.001 A 
ATOM     14  C   LIG    1        6.295  -0.010   1.880  0.00  0.00    +0.000 A 
ATOM     15  C   LIG    1        5.735  -0.027   0.606  0.00  0.00    +0.001 A 
ATOM     16  C   LIG    1        4.350  -0.034   0.458  0.00  0.00    +0.011 A 
ENDBRANCH   9  11
ENDBRANCH   1   9
TORSDOF 3
