REMARK  Name = DB12535
REMARK                            x       y       z     vdW  Elec       q    Type
REMARK                         _______ _______ _______ _____ _____    ______ ____
ROOT
ATOM      1  C   LIG    1        1.973   0.230   0.722  0.00  0.00    +0.135 A 
ATOM      2  N   LIG    1        2.739   1.028  -0.066  0.00  0.00    -0.214 NA
ATOM      3  C   LIG    1        4.076   0.811  -0.059  0.00  0.00    +0.164 A 
ATOM      4  N   LIG    1        4.731  -0.135   0.664  0.00  0.00    -0.229 NA
ATOM      5  C   LIG    1        3.971  -0.940   1.457  0.00  0.00    +0.076 A 
ATOM      6  C   LIG    1        4.613  -1.939   2.226  0.00  0.00    +0.028 A 
ATOM      7  C   LIG    1        3.865  -2.781   3.045  0.00  0.00    +0.002 A 
ATOM      8  C   LIG    1        2.482  -2.653   3.118  0.00  0.00    +0.001 A 
ATOM      9  C   LIG    1        1.817  -1.681   2.375  0.00  0.00    +0.013 A 
ATOM     10  C   LIG    1        2.548  -0.802   1.527  0.00  0.00    +0.040 A 
ENDROOT
BRANCH   1  11
ATOM     11  N   LIG    1        0.574   0.425   0.732  0.00  0.00    -0.282 N 
ATOM     12  H   LIG    1        0.117  -0.248   1.329  0.00  0.00    +0.155 HD
BRANCH  11  18
ATOM     13  C   LIG    1       -3.377   3.018  -1.031  0.00  0.00    +0.065 C 
ATOM     14  C   LIG    1       -2.027   2.453  -0.662  0.00  0.00    +0.035 A 
ATOM     15  N   LIG    1       -0.847   2.991  -1.093  0.00  0.00    -0.280 N 
ATOM     16  H   LIG    1       -0.774   3.805  -1.687  0.00  0.00    +0.189 HD
ATOM     17  N   LIG    1        0.235   2.342  -0.654  0.00  0.00    -0.158 NA
ATOM     18  C   LIG    1       -0.221   1.348   0.083  0.00  0.00    +0.146 A 
ATOM     19  C   LIG    1       -1.623   1.378   0.110  0.00  0.00    +0.068 A 
ENDBRANCH  11  18
ENDBRANCH   1  11
BRANCH   3  20
ATOM     20  C   LIG    1        4.901   1.710  -0.986  0.00  0.00    +0.212 C 
BRANCH  20  21
ATOM     21  C   LIG    1        4.857   1.214  -2.431  0.00  0.00    -0.012 A 
ATOM     22  C   LIG    1        5.626   0.112  -2.823  0.00  0.00    +0.009 A 
ATOM     23  C   LIG    1        5.589  -0.333  -4.142  0.00  0.00    +0.039 A 
ATOM     24  C   LIG    1        4.787   0.327  -5.071  0.00  0.00    +0.123 A 
ATOM     25  F   LIG    1        4.750  -0.105  -6.352  0.00  0.00    -0.205 F 
ATOM     26  C   LIG    1        4.021   1.428  -4.691  0.00  0.00    +0.039 A 
ATOM     27  C   LIG    1        4.057   1.872  -3.371  0.00  0.00    +0.009 A 
ENDBRANCH  20  21
BRANCH  20  28
ATOM     28  O   LIG    1        6.231   1.924  -0.538  0.00  0.00    -0.379 OA
ATOM     29  H   LIG    1        6.197   2.392   0.299  0.00  0.00    +0.211 HD
ENDBRANCH  20  28
ENDBRANCH   3  20
TORSDOF 5
