REMARK  Name = DB12369
REMARK                            x       y       z     vdW  Elec       q    Type
REMARK                         _______ _______ _______ _____ _____    ______ ____
ROOT
ATOM      1  C   LIG    1       -0.795  -1.153   0.318  0.00  0.00    +0.253 C 
ATOM      2  O   LIG    1       -0.413  -2.321   0.373  0.00  0.00    -0.270 OA
ATOM      3  C   LIG    1       -0.016   0.049   0.267  0.00  0.00    +0.076 C 
ATOM      4  C   LIG    1       -0.849   1.098   0.219  0.00  0.00    +0.060 C 
ATOM      5  C   LIG    1       -2.196   0.601   0.222  0.00  0.00    +0.252 C 
ATOM      6  O   LIG    1       -3.255   1.225   0.165  0.00  0.00    -0.270 OA
ATOM      7  N   LIG    1       -2.068  -0.733   0.292  0.00  0.00    -0.248 N 
ATOM      8  H   LIG    1       -2.857  -1.362   0.314  0.00  0.00    +0.158 HD
ENDROOT
BRANCH   3   9
ATOM      9  C   LIG    1        1.464   0.075   0.290  0.00  0.00    +0.089 A 
ATOM     10  C   LIG    1        2.222   0.694   1.325  0.00  0.00    +0.027 A 
ATOM     11  C   LIG    1        3.639   0.665   1.151  0.00  0.00    +0.077 A 
ATOM     12  C   LIG    1        4.471   1.254   2.135  0.00  0.00    +0.028 A 
ATOM     13  C   LIG    1        3.907   1.855   3.257  0.00  0.00    +0.002 A 
ATOM     14  C   LIG    1        2.526   1.884   3.430  0.00  0.00    +0.001 A 
ATOM     15  N   LIG    1        4.214   0.083   0.060  0.00  0.00    -0.214 NA
ATOM     16  C   LIG    1        3.393  -0.463  -0.880  0.00  0.00    +0.219 A 
ATOM     17  C   LIG    1        1.680   1.310   2.484  0.00  0.00    +0.012 A 
ATOM     18  N   LIG    1        2.038  -0.504  -0.793  0.00  0.00    -0.214 NA
BRANCH  16  19
ATOM     19  N   LIG    1        3.992  -1.117  -1.963  0.00  0.00    -0.303 N 
ATOM     20  C   LIG    1        5.360  -0.787  -2.416  0.00  0.00    +0.089 C 
ATOM     21  C   LIG    1        5.377   0.373  -3.438  0.00  0.00    -0.060 C 
ATOM     22  N   LIG    1        4.552  -0.044  -4.672  0.00  0.00    +0.380 N 
ATOM     23  H   LIG    1        4.980  -0.864  -5.080  0.00  0.00    -0.082 HD
ATOM     24  C   LIG    1        4.513   1.091  -5.713  0.00  0.00    -0.096 C 
ATOM     25  C   LIG    1        3.126  -0.417  -4.217  0.00  0.00    -0.060 C 
ATOM     26  C   LIG    1        3.227  -1.537  -3.156  0.00  0.00    +0.089 C 
ENDBRANCH  16  19
ENDBRANCH   3   9
BRANCH   4  27
ATOM     27  C   LIG    1       -0.511   2.518   0.136  0.00  0.00    +0.013 A 
ATOM     28  C   LIG    1        0.463   3.061  -0.683  0.00  0.00    +0.092 A 
ATOM     29  N   LIG    1        0.512   4.420  -0.512  0.00  0.00    -0.360 N 
ATOM     30  H   LIG    1        1.154   5.009  -1.022  0.00  0.00    +0.165 HD
ATOM     31  C   LIG    1       -0.418   4.810   0.428  0.00  0.00    +0.047 A 
ATOM     32  C   LIG    1       -0.731   6.077   0.933  0.00  0.00    +0.026 A 
ATOM     33  C   LIG    1       -1.730   6.143   1.903  0.00  0.00    +0.002 A 
ATOM     34  C   LIG    1       -2.391   5.005   2.356  0.00  0.00    +0.001 A 
ATOM     35  C   LIG    1       -2.081   3.743   1.852  0.00  0.00    +0.010 A 
ATOM     36  C   LIG    1       -1.085   3.623   0.866  0.00  0.00    +0.008 A 
ENDBRANCH   4  27
TORSDOF 3
