REMARK  Name = DB12165
REMARK                            x       y       z     vdW  Elec       q    Type
REMARK                         _______ _______ _______ _____ _____    ______ ____
ROOT
ATOM      1  C   LIG    1        1.710   0.700  -0.146  0.00  0.00    +0.127 C 
ATOM      2  N   LIG    1        2.216   0.496  -1.531  0.00  0.00    -0.289 N 
ATOM      3  C   LIG    1        2.902  -0.639  -1.844  0.00  0.00    +0.249 C 
ATOM      4  O   LIG    1        3.195  -1.510  -1.022  0.00  0.00    -0.270 OA
ATOM      5  C   LIG    1        1.776   1.478  -2.555  0.00  0.00    +0.109 C 
ATOM      6  C   LIG    1        2.226   2.882  -2.103  0.00  0.00    +0.019 C 
ATOM      7  C   LIG    1        1.735   3.226  -0.690  0.00  0.00    +0.004 C 
ATOM      8  C   LIG    1        2.161   2.123   0.291  0.00  0.00    +0.029 C 
ENDROOT
BRANCH   1  15
ATOM      9  C   LIG    1       -5.466   0.954   1.438  0.00  0.00    +0.049 C 
ATOM     10  C   LIG    1       -4.175   0.415   0.834  0.00  0.00    +0.008 A 
ATOM     11  C   LIG    1       -4.137  -0.672  -0.069  0.00  0.00    +0.128 A 
ATOM     12  N   LIG    1       -2.972  -1.104  -0.643  0.00  0.00    -0.213 NA
ATOM     13  C   LIG    1       -1.838  -0.468  -0.335  0.00  0.00    +0.158 A 
ATOM     14  C   LIG    1       -0.492  -0.624  -0.716  0.00  0.00    +0.075 A 
ATOM     15  C   LIG    1        0.211   0.395  -0.056  0.00  0.00    +0.086 A 
ATOM     16  N   LIG    1       -0.588   1.117   0.716  0.00  0.00    -0.168 NA
ATOM     17  N   LIG    1       -1.828   0.610   0.548  0.00  0.00    -0.221 N 
ATOM     18  C   LIG    1       -2.975   1.064   1.138  0.00  0.00    +0.121 A 
BRANCH  11  19
ATOM     19  N   LIG    1       -5.296  -1.397  -0.410  0.00  0.00    -0.316 N 
ATOM     20  C   LIG    1       -6.083  -2.078   0.624  0.00  0.00    +0.090 C 
ATOM     21  C   LIG    1       -6.034  -3.606   0.427  0.00  0.00    -0.056 C 
ATOM     22  C   LIG    1       -5.274  -3.751  -0.887  0.00  0.00    +0.004 C 
ATOM     23  C   LIG    1       -5.376  -2.365  -1.509  0.00  0.00    +0.105 C 
BRANCH  21  24
ATOM     24  N   LIG    1       -7.406  -4.294   0.488  0.00  0.00    +0.381 N 
ATOM     25  H   LIG    1       -7.304  -5.287   0.337  0.00  0.00    -0.090 HD
ATOM     26  H   LIG    1       -7.831  -4.144   1.392  0.00  0.00    -0.090 HD
ATOM     27  H   LIG    1       -8.015  -3.917  -0.224  0.00  0.00    -0.090 HD
ENDBRANCH  21  24
ENDBRANCH  11  19
ENDBRANCH   1  15
BRANCH   3  28
ATOM     28  C   LIG    1        3.311  -0.856  -3.283  0.00  0.00    +0.061 A 
ATOM     29  C   LIG    1        2.472  -1.527  -4.214  0.00  0.00    +0.060 A 
ATOM     30  C   LIG    1        2.968  -1.675  -5.524  0.00  0.00    +0.026 A 
ATOM     31  C   LIG    1        4.210  -1.176  -5.908  0.00  0.00    +0.022 A 
ATOM     32  C   LIG    1        5.006  -0.511  -4.984  0.00  0.00    +0.042 A 
ATOM     33 CL   LIG    1        6.543   0.117  -5.456  0.00  0.00    -0.084 Cl
ATOM     34  C   LIG    1        4.559  -0.355  -3.677  0.00  0.00    +0.035 A 
BRANCH  29  35
ATOM     35  N   LIG    1        1.234  -2.010  -3.833  0.00  0.00    -0.220 N 
ATOM     36  H   LIG    1        1.010  -1.992  -2.874  0.00  0.00    +0.173 HD
BRANCH  35  37
ATOM     37  S   LIG    1        0.164  -2.584  -4.823  0.00  0.00    +0.040 S 
ATOM     38  C   LIG    1       -1.396  -2.639  -3.764  0.00  0.00    +0.218 C 
ATOM     39  O   LIG    1        0.425  -3.982  -5.185  0.00  0.00    -0.155 OA
ATOM     40  O   LIG    1       -0.158  -1.666  -5.921  0.00  0.00    -0.155 OA
ENDBRANCH  35  37
ENDBRANCH  29  35
ENDBRANCH   3  28
TORSDOF 6
