REMARK  Name = DB12742
REMARK                            x       y       z     vdW  Elec       q    Type
REMARK                         _______ _______ _______ _____ _____    ______ ____
ROOT
ATOM      1  N   LIG    1       -2.047  -0.444  -2.053  0.00  0.00    -0.309 N 
ATOM      2  C   LIG    1       -1.250   0.729  -2.465  0.00  0.00    +0.125 C 
ATOM      3  C   LIG    1        0.158   0.438  -3.035  0.00  0.00    +0.125 C 
ATOM      4  N   LIG    1        0.856  -0.494  -2.136  0.00  0.00    -0.310 N 
ATOM      5  C   LIG    1        0.152  -1.775  -1.971  0.00  0.00    +0.125 C 
ATOM      6  C   LIG    1       -1.243  -1.482  -1.373  0.00  0.00    +0.125 C 
ENDROOT
BRANCH   1  14
ATOM      7  C   LIG    1       -7.403   4.078  -2.244  0.00  0.00    +0.001 A 
ATOM      8  C   LIG    1       -7.322   2.715  -1.943  0.00  0.00    +0.014 A 
ATOM      9  C   LIG    1       -6.062   2.094  -1.987  0.00  0.00    +0.046 A 
ATOM     10  C   LIG    1       -5.593   0.795  -1.758  0.00  0.00    +0.122 A 
ATOM     11  N   LIG    1       -6.233  -0.326  -1.402  0.00  0.00    -0.231 NA
ATOM     12  C   LIG    1       -5.436  -1.421  -1.270  0.00  0.00    +0.224 A 
ATOM     13  N   LIG    1       -4.092  -1.493  -1.457  0.00  0.00    -0.217 NA
ATOM     14  C   LIG    1       -3.425  -0.355  -1.811  0.00  0.00    +0.168 A 
ATOM     15  C   LIG    1       -4.191   0.822  -1.976  0.00  0.00    +0.194 A 
ATOM     16  O   LIG    1       -3.797   2.093  -2.320  0.00  0.00    -0.450 OA
ATOM     17  C   LIG    1       -4.930   2.867  -2.331  0.00  0.00    +0.138 A 
ATOM     18  C   LIG    1       -5.004   4.232  -2.632  0.00  0.00    +0.047 A 
ATOM     19  C   LIG    1       -6.269   4.820  -2.581  0.00  0.00    +0.004 A 
ENDBRANCH   1  14
BRANCH   4  20
ATOM     20  C   LIG    1        1.884  -0.126  -1.289  0.00  0.00    +0.133 C 
ATOM     21  S   LIG    1        2.106   1.452  -0.740  0.00  0.00    -0.019 S 
BRANCH  20  22
ATOM     22  N   LIG    1        2.731  -1.158  -0.970  0.00  0.00    -0.322 N 
ATOM     23  H   LIG    1        2.694  -1.981  -1.554  0.00  0.00    +0.148 HD
BRANCH  22  24
ATOM     24  C   LIG    1        3.829  -1.115   0.008  0.00  0.00    +0.138 C 
BRANCH  24  25
ATOM     25  C   LIG    1        3.397  -1.092   1.471  0.00  0.00    -0.027 A 
ATOM     26  C   LIG    1        3.951  -0.140   2.344  0.00  0.00    +0.054 A 
ATOM     27  C   LIG    1        3.529  -0.151   3.669  0.00  0.00    +0.167 A 
ATOM     28  O   LIG    1        3.894   0.674   4.685  0.00  0.00    -0.453 OA
ATOM     29  C   LIG    1        3.322   0.124   5.842  0.00  0.00    +0.466 C 
ATOM     30  O   LIG    1        2.353  -0.806   5.438  0.00  0.00    -0.453 OA
ATOM     31  C   LIG    1        2.599  -1.043   4.123  0.00  0.00    +0.166 A 
ATOM     32  C   LIG    1        2.021  -1.989   3.284  0.00  0.00    +0.050 A 
ATOM     33  C   LIG    1        2.435  -2.008   1.946  0.00  0.00    +0.009 A 
ENDBRANCH  24  25
ENDBRANCH  22  24
ENDBRANCH  20  22
ENDBRANCH   4  20
TORSDOF 5
