REMARK  Name = DB12493
REMARK                            x       y       z     vdW  Elec       q    Type
REMARK                         _______ _______ _______ _____ _____    ______ ____
ROOT
ATOM      1  C   LIG    1        1.536   0.002  -0.008  0.00  0.00    -0.034 C 
ATOM      2  C   LIG    1        2.150   0.567   1.295  0.00  0.00    +0.009 C 
ATOM      3  C   LIG    1        2.025  -0.554   2.341  0.00  0.00    -0.007 C 
ATOM      4  C   LIG    1        3.272  -0.945   3.139  0.00  0.00    +0.004 C 
ATOM      5  C   LIG    1        3.573  -2.041   2.110  0.00  0.00    +0.004 C 
ATOM      6  C   LIG    1        2.145  -1.863   1.548  0.00  0.00    -0.007 C 
ATOM      7  C   LIG    1        1.984  -1.481   0.063  0.00  0.00    +0.009 C 
ENDROOT
BRANCH   1   8
ATOM      8  C   LIG    1       -0.032   0.062   0.030  0.00  0.00    +0.125 C 
BRANCH   8   9
ATOM      9  C   LIG    1       -0.664   1.460   0.091  0.00  0.00    +0.307 C 
ATOM     10  O   LIG    1       -0.924   1.996   1.170  0.00  0.00    -0.251 OA
BRANCH   9  12
ATOM     11  C   LIG    1       -1.473   3.269  -1.268  0.00  0.00    +0.280 C 
ATOM     12  O   LIG    1       -0.890   1.981  -1.132  0.00  0.00    -0.468 OA
ENDBRANCH   9  12
ENDBRANCH   8   9
ENDBRANCH   1   8
BRANCH   1  13
ATOM     13  C   LIG    1        2.135   0.745  -1.246  0.00  0.00    -0.079 C 
BRANCH  13  14
ATOM     14  N   LIG    1        1.666   0.154  -2.587  0.00  0.00    +0.378 N 
ATOM     15  H   LIG    1        1.934  -0.818  -2.650  0.00  0.00    -0.090 HD
ATOM     16  H   LIG    1        0.661   0.220  -2.662  0.00  0.00    -0.090 HD
ATOM     17  H   LIG    1        2.084   0.658  -3.355  0.00  0.00    -0.090 HD
ENDBRANCH  13  14
ENDBRANCH   1  13
TORSDOF 5
