REMARK  Name = DB12667
REMARK                            x       y       z     vdW  Elec       q    Type
REMARK                         _______ _______ _______ _____ _____    ______ ____
ROOT
ATOM      1  C   LIG    1       -2.149  -1.265  -0.113  0.00  0.00    +0.006 A 
ATOM      2  C   LIG    1       -2.756   0.001  -0.016  0.00  0.00    +0.030 A 
ATOM      3  C   LIG    1       -1.957   1.140   0.091  0.00  0.00    +0.111 A 
ATOM      4  N   LIG    1       -0.603   1.093   0.109  0.00  0.00    -0.260 NA
ATOM      5  C   LIG    1       -0.011  -0.126   0.018  0.00  0.00    +0.042 A 
ATOM      6  C   LIG    1       -0.742  -1.314  -0.091  0.00  0.00    +0.033 A 
ENDROOT
BRANCH   1   8
ATOM      7  S   LIG    1       -2.593  -3.938   0.532  0.00  0.00    -0.035 S 
ATOM      8  C   LIG    1       -2.976  -2.499  -0.216  0.00  0.00    +0.077 C 
BRANCH   8   9
ATOM      9  N   LIG    1       -4.093  -2.365  -0.971  0.00  0.00    -0.352 N 
ATOM     10  H   LIG    1       -4.714  -3.151  -1.091  0.00  0.00    +0.143 HD
ATOM     11  H   LIG    1       -4.298  -1.478  -1.410  0.00  0.00    +0.143 HD
ENDBRANCH   8   9
ENDBRANCH   1   8
BRANCH   5  12
ATOM     12  C   LIG    1        1.511  -0.137   0.049  0.00  0.00    +0.055 C 
BRANCH  12  13
ATOM     13  C   LIG    1        2.087   0.162   1.446  0.00  0.00    +0.003 C 
ATOM     14  C   LIG    1        3.621   0.150   1.474  0.00  0.00    +0.004 C 
ENDBRANCH  12  13
ENDBRANCH   5  12
TORSDOF 4
