REMARK  Name = DB12847
REMARK                            x       y       z     vdW  Elec       q    Type
REMARK                         _______ _______ _______ _____ _____    ______ ____
ROOT
ATOM      1  C   LIG    1       -2.013   1.666   0.354  0.00  0.00    +0.096 C 
ENDROOT
BRANCH   1   4
ATOM      2  N   LIG    1       -3.565   3.375   1.160  0.00  0.00    -0.284 N 
ATOM      3  H   LIG    1       -3.760   2.672   1.858  0.00  0.00    +0.155 HD
ATOM      4  C   LIG    1       -2.597   3.086   0.264  0.00  0.00    +0.217 C 
ATOM      5  O   LIG    1       -2.171   3.868  -0.587  0.00  0.00    -0.275 OA
BRANCH   2  10
ATOM      6  C   LIG    1       -5.673   5.956   2.729  0.00  0.00    +0.021 A 
ATOM      7  C   LIG    1       -5.791   6.858   1.671  0.00  0.00    +0.111 A 
ATOM      8  N   LIG    1       -5.212   6.655   0.461  0.00  0.00    -0.261 NA
ATOM      9  C   LIG    1       -4.481   5.524   0.288  0.00  0.00    +0.134 A 
ATOM     10  C   LIG    1       -4.299   4.567   1.303  0.00  0.00    +0.052 A 
ATOM     11  C   LIG    1       -4.920   4.797   2.535  0.00  0.00    +0.026 A 
ENDBRANCH   2  10
ENDBRANCH   1   4
BRANCH   1  12
ATOM     12  C   LIG    1       -0.484   1.609   0.139  0.00  0.00    +0.009 C 
BRANCH  12  13
ATOM     13  C   LIG    1        0.071   0.175   0.211  0.00  0.00    +0.000 C 
BRANCH  13  14
ATOM     14  C   LIG    1        1.597   0.112   0.023  0.00  0.00    +0.000 C 
BRANCH  14  15
ATOM     15  C   LIG    1        2.148  -1.328   0.065  0.00  0.00    +0.009 C 
BRANCH  15  16
ATOM     16  C   LIG    1        3.676  -1.436  -0.150  0.00  0.00    +0.098 C 
BRANCH  16  17
ATOM     17  C   LIG    1        4.532  -0.806   0.962  0.00  0.00    +0.235 C 
ATOM     18  N   LIG    1        5.674  -0.218   0.565  0.00  0.00    -0.197 N 
ATOM     19  H   LIG    1        6.061  -0.163  -0.367  0.00  0.00    +0.182 HD
ATOM     20  O   LIG    1        4.165  -0.872   2.138  0.00  0.00    -0.274 OA
BRANCH  18  21
ATOM     21  O   LIG    1        6.509   0.339   1.539  0.00  0.00    -0.295 OA
ATOM     22  H   LIG    1        7.247  -0.274   1.573  0.00  0.00    +0.241 HD
ENDBRANCH  18  21
ENDBRANCH  16  17
ENDBRANCH  15  16
ENDBRANCH  14  15
ENDBRANCH  13  14
ENDBRANCH  12  13
ENDBRANCH   1  12
TORSDOF 9
