REMARK  Name = DB12796
REMARK                            x       y       z     vdW  Elec       q    Type
REMARK                         _______ _______ _______ _____ _____    ______ ____
ROOT
ATOM      1  C   LIG    1        2.251  -0.895   3.570  0.00  0.00    +0.080 A 
ATOM      2  C   LIG    1        3.506  -1.266   4.077  0.00  0.00    +0.182 A 
ATOM      3  F   LIG    1        4.531  -1.557   3.241  0.00  0.00    -0.200 F 
ATOM      4  C   LIG    1        3.706  -1.331   5.458  0.00  0.00    +0.186 A 
ATOM      5  F   LIG    1        4.917  -1.703   5.939  0.00  0.00    -0.200 F 
ATOM      6  C   LIG    1        2.664  -1.007   6.339  0.00  0.00    +0.116 A 
ATOM      7  C   LIG    1        1.416  -0.627   5.826  0.00  0.00    +0.152 A 
ATOM      8  F   LIG    1        0.396  -0.313   6.659  0.00  0.00    -0.203 F 
ATOM      9  C   LIG    1        1.215  -0.565   4.448  0.00  0.00    +0.067 A 
ENDROOT
BRANCH   1  14
ATOM     10  C   LIG    1        1.429   0.034   0.094  0.00  0.00    +0.213 C 
ATOM     11  O   LIG    1        1.863  -1.311   0.056  0.00  0.00    -0.444 OA
ATOM     12  C   LIG    1        2.098  -1.836   1.283  0.00  0.00    +0.408 C 
ATOM     13  O   LIG    1        2.320  -3.033   1.460  0.00  0.00    -0.226 OA
ATOM     14  N   LIG    1        2.020  -0.784   2.197  0.00  0.00    -0.231 N 
ATOM     15  C   LIG    1        1.844   0.465   1.488  0.00  0.00    +0.163 C 
BRANCH  10  16
ATOM     16  C   LIG    1       -0.094   0.022  -0.177  0.00  0.00    +0.149 C 
BRANCH  16  17
ATOM     17  N   LIG    1       -0.719   1.337  -0.088  0.00  0.00    -0.323 N 
ATOM     18  H   LIG    1       -0.497   1.928  -0.876  0.00  0.00    +0.148 HD
BRANCH  17  20
ATOM     19  C   LIG    1       -1.840   3.176   1.123  0.00  0.00    +0.087 A 
ATOM     20  C   LIG    1       -1.358   1.875   1.002  0.00  0.00    +0.162 A 
ATOM     21  N   LIG    1       -1.588   1.183   2.103  0.00  0.00    -0.064 NA
ATOM     22  O   LIG    1       -2.244   2.039   2.990  0.00  0.00    -0.361 OA
ATOM     23  C   LIG    1       -2.391   3.241   2.382  0.00  0.00    +0.232 A 
ENDBRANCH  17  20
ENDBRANCH  16  17
ENDBRANCH  10  16
ENDBRANCH   1  14
BRANCH   6  24
ATOM     24  N   LIG    1        2.862  -1.080   7.752  0.00  0.00    -0.342 N 
ATOM     25  C   LIG    1        3.352  -0.002   8.374  0.00  0.00    +0.089 C 
ATOM     26  C   LIG    1        3.564   0.023   9.737  0.00  0.00    +0.058 C 
ATOM     27  C   LIG    1        3.090  -0.986  10.500  0.00  0.00    +0.097 C 
ATOM     28  C   LIG    1        2.328  -2.201   9.956  0.00  0.00    +0.095 C 
ATOM     29  C   LIG    1        2.586  -2.395   8.428  0.00  0.00    +0.129 C 
BRANCH  27  30
ATOM     30  O   LIG    1        3.200  -1.038  11.854  0.00  0.00    -0.511 OA
ATOM     31  H   LIG    1        2.778  -1.835  12.182  0.00  0.00    +0.292 HD
ENDBRANCH  27  30
ENDBRANCH   6  24
TORSDOF 6
