REMARK  Name = DB12947
REMARK                            x       y       z     vdW  Elec       q    Type
REMARK                         _______ _______ _______ _____ _____    ______ ____
ROOT
ATOM      1  N   LIG    1        0.117   0.135   0.037  0.00  0.00    -0.269 N 
ATOM      2  C   LIG    1       -0.578  -1.052   0.055  0.00  0.00    +0.137 A 
ATOM      3  C   LIG    1       -1.918  -1.138  -0.054  0.00  0.00    +0.204 A 
ATOM      4  F   LIG    1       -2.561  -2.326  -0.036  0.00  0.00    -0.198 F 
ATOM      5  C   LIG    1       -2.690   0.087  -0.198  0.00  0.00    +0.289 A 
ATOM      6  O   LIG    1       -3.914   0.132  -0.303  0.00  0.00    -0.265 OA
ATOM      7  N   LIG    1       -1.911   1.210  -0.205  0.00  0.00    -0.273 N 
ATOM      8  H   LIG    1       -2.416   2.079  -0.301  0.00  0.00    +0.174 HD
ATOM      9  C   LIG    1       -0.549   1.341  -0.096  0.00  0.00    +0.332 A 
ATOM     10  O   LIG    1       -0.040   2.463  -0.115  0.00  0.00    -0.246 OA
ENDROOT
BRANCH   1  11
ATOM     11  C   LIG    1        1.567   0.109   0.188  0.00  0.00    +0.255 C 
ATOM     12  O   LIG    1        2.161  -0.695  -0.787  0.00  0.00    -0.348 OA
ATOM     13  C   LIG    1        3.451  -1.132  -0.360  0.00  0.00    +0.149 C 
ATOM     14  C   LIG    1        3.483  -2.663  -0.497  0.00  0.00    +0.041 C 
ATOM     15  C   LIG    1        3.581  -0.620   1.088  0.00  0.00    +0.176 C 
ATOM     16  C   LIG    1        2.128  -0.400   1.512  0.00  0.00    +0.195 C 
BRANCH  15  17
ATOM     17  O   LIG    1        4.388   0.544   1.175  0.00  0.00    -0.387 OA
ATOM     18  H   LIG    1        3.997   1.229   0.626  0.00  0.00    +0.210 HD
ENDBRANCH  15  17
BRANCH  16  19
ATOM     19  O   LIG    1        1.869   0.516   2.561  0.00  0.00    -0.385 OA
ATOM     20  H   LIG    1        2.160   0.126   3.389  0.00  0.00    +0.210 HD
ENDBRANCH  16  19
ENDBRANCH   1  11
TORSDOF 3
