REMARK  Name = DB12994
REMARK                            x       y       z     vdW  Elec       q    Type
REMARK                         _______ _______ _______ _____ _____    ______ ____
ROOT
ATOM      1  C   UNK A  1        1.638   0.453   0.091  0.00  0.00    +0.183 C 
ENDROOT
BRANCH   1   2
ATOM      2  N   UNK A  1        2.123   0.959  -1.210  0.00  0.00    -0.286 N 
ATOM      3  H   UNK A  1        1.652   0.579  -2.018  0.00  0.00    +0.151 HD
ATOM      4  C   UNK A  0        3.073   1.888  -1.405  0.00  0.00    +0.301 C 
ATOM      5  N   UNK A  1        3.382   2.001  -2.709  0.00  0.00    -0.286 N 
ATOM      6  H   UNK A  1        3.090   1.259  -3.327  0.00  0.00    +0.151 HD
ATOM      7  O   UNK A  0        3.594   2.550  -0.505  0.00  0.00    -0.253 OA
BRANCH   5   8
ATOM      8  C   UNK A  1        4.273   2.998  -3.330  0.00  0.00    +0.183 C 
BRANCH   8   9
ATOM      9  C   UNK A  1        3.667   4.451  -3.238  0.00  0.00    +0.325 C 
ATOM     10  O   UNK A  1        4.317   5.239  -2.513  0.00  0.00    -0.249 OA
BRANCH   9  11
ATOM     11  O   UNK A  1        2.613   4.657  -3.887  0.00  0.00    -0.479 OA
ATOM     12  H   UNK A  1        2.232   3.967  -4.393  0.00  0.00    +0.295 HD
ENDBRANCH   9  11
ENDBRANCH   8   9
BRANCH   8  13
ATOM     13  C   UNK A  1        4.508   2.610  -4.820  0.00  0.00    +0.045 C 
BRANCH  13  14
ATOM     14  C   UNK A  1        5.281   1.280  -5.000  0.00  0.00    +0.123 C 
BRANCH  14  15
ATOM     15  C   UNK A  1        5.566   0.859  -6.455  0.00  0.00    +0.305 C 
ATOM     16  O   UNK A  1        6.206  -0.205  -6.606  0.00  0.00    -0.251 OA
BRANCH  15  17
ATOM     17  O   UNK A  1        5.155   1.576  -7.395  0.00  0.00    -0.481 OA
ATOM     18  H   UNK A  1        4.680   2.363  -7.211  0.00  0.00    +0.295 HD
ENDBRANCH  15  17
ENDBRANCH  14  15
ENDBRANCH  13  14
ENDBRANCH   8  13
ENDBRANCH   5   8
ENDBRANCH   1   2
BRANCH   1  19
ATOM     19  C   UNK A  1        2.390  -0.858   0.557  0.00  0.00    +0.325 C 
ATOM     20  O   UNK A  1        2.233  -1.128   1.771  0.00  0.00    -0.249 OA
BRANCH  19  21
ATOM     21  O   UNK A  1        3.024  -1.510  -0.307  0.00  0.00    -0.479 OA
ATOM     22  H   UNK A  1        3.068  -1.200  -1.190  0.00  0.00    +0.295 HD
ENDBRANCH  19  21
ENDBRANCH   1  19
BRANCH   1  23
ATOM     23  C   UNK A  1        0.099   0.254   0.063  0.00  0.00    +0.034 C 
BRANCH  23  24
ATOM     24  C   UNK A  1       -0.683   1.572  -0.110  0.00  0.00    +0.004 C 
BRANCH  24  25
ATOM     25  C   UNK A  1       -2.197   1.362  -0.310  0.00  0.00    +0.019 C 
BRANCH  25  26
ATOM     26  C   UNK A  1       -3.042   2.655  -0.290  0.00  0.00    +0.106 C 
BRANCH  26  30
ATOM     27  N   UNK A  1       -1.216   5.187  -2.099  0.00  0.00    -0.269 N 
ATOM     28  H   UNK A  1       -1.613   4.873  -2.972  0.00  0.00    +0.156 HD
ATOM     29  C   UNK A  1       -1.748   4.679  -0.970  0.00  0.00    +0.304 C 
ATOM     30  N   UNK A  1       -2.592   3.671  -1.246  0.00  0.00    -0.299 N 
ATOM     31  H   UNK A  1       -2.934   3.574  -2.191  0.00  0.00    +0.150 HD
ATOM     32  O   UNK A  1       -1.480   5.047   0.176  0.00  0.00    -0.253 OA
BRANCH  27  34
ATOM     33  C   UNK A  1       -0.138   6.826  -3.452  0.00  0.00    +0.024 A 
ATOM     34  C   UNK A  1       -0.202   6.154  -2.228  0.00  0.00    +0.035 A 
ATOM     35  C   UNK A  1        0.748   6.432  -1.231  0.00  0.00    +0.024 A 
ATOM     36  C   UNK A  1        1.732   7.390  -1.458  0.00  0.00    +0.016 A 
ATOM     37  C   UNK A  1        1.780   8.060  -2.678  0.00  0.00    +0.013 A 
ATOM     38  I   UNK A  1        3.276   9.480  -3.022  0.00  0.00    -0.044 I 
ATOM     39  C   UNK A  1        0.849   7.781  -3.676  0.00  0.00    +0.016 A 
ENDBRANCH  27  34
ENDBRANCH  26  30
ENDBRANCH  25  26
ENDBRANCH  24  25
ENDBRANCH  23  24
ENDBRANCH   1  23
TORSDOF 16
