REMARK  Name = DB12097
REMARK                            x       y       z     vdW  Elec       q    Type
REMARK                         _______ _______ _______ _____ _____    ______ ____
ROOT
ATOM      1  C   LIG    1       -0.020  -0.050   0.215  0.00  0.00    +0.176 C 
ENDROOT
BRANCH   1   2
ATOM      2  O   LIG    1       -0.609   1.190  -0.144  0.00  0.00    -0.386 OA
ATOM      3  H   LIG    1       -1.553   1.059  -0.260  0.00  0.00    +0.210 HD
ENDBRANCH   1   2
BRANCH   1   4
ATOM      4  C   LIG    1       -0.672  -0.584   1.525  0.00  0.00    +0.173 C 
BRANCH   4   5
ATOM      5  O   LIG    1       -0.095  -1.819   1.911  0.00  0.00    -0.387 OA
ATOM      6  H   LIG    1        0.851  -1.693   2.019  0.00  0.00    +0.210 HD
ENDBRANCH   4   5
BRANCH   4   7
ATOM      7  C   LIG    1       -2.205  -0.753   1.456  0.00  0.00    +0.227 C 
BRANCH   7   8
ATOM      8  O   LIG    1       -2.562  -1.626   0.393  0.00  0.00    -0.236 OA
BRANCH   8  10
ATOM      9  C   LIG    1       -3.852  -2.676  -1.712  0.00  0.00    +0.228 C 
ATOM     10  S   LIG    1       -3.797  -1.143  -0.619  0.00  0.00    +0.079 S 
ATOM     11  O   LIG    1       -5.031  -1.059   0.169  0.00  0.00    -0.147 OA
ATOM     12  O   LIG    1       -3.323   0.002  -1.404  0.00  0.00    -0.147 OA
ENDBRANCH   8  10
ENDBRANCH   7   8
ENDBRANCH   4   7
ENDBRANCH   1   4
BRANCH   1  13
ATOM     13  C   LIG    1        1.535   0.083   0.255  0.00  0.00    +0.176 C 
BRANCH  13  14
ATOM     14  O   LIG    1        1.930   0.876   1.364  0.00  0.00    -0.386 OA
ATOM     15  H   LIG    1        1.562   1.756   1.254  0.00  0.00    +0.210 HD
ENDBRANCH  13  14
BRANCH  13  16
ATOM     16  C   LIG    1        2.187   0.642  -1.044  0.00  0.00    +0.173 C 
BRANCH  16  17
ATOM     17  O   LIG    1        1.787  -0.106  -2.179  0.00  0.00    -0.387 OA
ATOM     18  H   LIG    1        0.829  -0.089  -2.232  0.00  0.00    +0.210 HD
ENDBRANCH  16  17
BRANCH  16  19
ATOM     19  C   LIG    1        3.730   0.702  -1.015  0.00  0.00    +0.227 C 
BRANCH  19  20
ATOM     20  O   LIG    1        4.274  -0.586  -0.753  0.00  0.00    -0.236 OA
BRANCH  20  21
ATOM     21  S   LIG    1        5.731  -0.991  -1.462  0.00  0.00    +0.079 S 
ATOM     22  C   LIG    1        5.120  -1.284  -3.225  0.00  0.00    +0.228 C 
ATOM     23  O   LIG    1        6.166  -2.272  -0.895  0.00  0.00    -0.147 OA
ATOM     24  O   LIG    1        6.613   0.182  -1.437  0.00  0.00    -0.147 OA
ENDBRANCH  20  21
ENDBRANCH  19  20
ENDBRANCH  16  19
ENDBRANCH  13  16
ENDBRANCH   1  13
TORSDOF 13
