REMARK  Name = DB12455
REMARK                            x       y       z     vdW  Elec       q    Type
REMARK                         _______ _______ _______ _____ _____    ______ ____
ROOT
ATOM      1  C   LIG    1       -0.621   1.484  -0.227  0.00  0.00    +0.132 A 
ATOM      2  C   LIG    1       -2.020   1.540   0.011  0.00  0.00    +0.069 A 
ATOM      3  C   LIG    1       -2.744   2.885   0.111  0.00  0.00    +0.197 C 
ATOM      4  O   LIG    1       -2.109   3.938   0.203  0.00  0.00    -0.287 OA
ATOM      5  C   LIG    1       -4.240   2.850   0.026  0.00  0.00    +0.044 C 
ATOM      6  C   LIG    1       -5.001   3.966   0.245  0.00  0.00    +0.141 C 
ATOM      7  C   LIG    1       -6.551   4.051   0.096  0.00  0.00    +0.190 C 
ATOM      8  C   LIG    1       -7.244   4.201   1.490  0.00  0.00    +0.211 C 
ATOM      9  O   LIG    1       -6.835   5.026   2.314  0.00  0.00    -0.288 OA
ATOM     10  C   LIG    1       -8.420   3.340   1.785  0.00  0.00    +0.121 C 
ATOM     11  C   LIG    1       -9.049   2.671   0.777  0.00  0.00    +0.127 C 
ATOM     12  C   LIG    1       -8.623   2.688  -0.704  0.00  0.00    +0.129 C 
ATOM     13  C   LIG    1       -7.063   2.805  -0.706  0.00  0.00    +0.061 C 
ATOM     14  C   LIG    1       -6.399   1.514  -0.174  0.00  0.00    +0.018 C 
ATOM     15  C   LIG    1       -4.872   1.506  -0.378  0.00  0.00    +0.031 C 
ATOM     16  C   LIG    1       -4.228   0.376   0.437  0.00  0.00    +0.046 C 
ATOM     17  C   LIG    1       -2.724   0.318   0.168  0.00  0.00    -0.011 A 
ATOM     18  C   LIG    1       -2.041  -0.917   0.069  0.00  0.00    +0.034 A 
ATOM     19  C   LIG    1       -0.669  -0.924  -0.189  0.00  0.00    +0.032 A 
ATOM     20  C   LIG    1        0.045   0.257  -0.326  0.00  0.00    +0.010 A 
ENDROOT
BRANCH  10  21
ATOM     21  C   LIG    1       -8.906   3.234   3.153  0.00  0.00    +0.248 C 
ATOM     22  N   LIG    1      -10.168   3.635   3.347  0.00  0.00    -0.325 N 
ATOM     23  H   LIG    1      -10.727   3.951   2.569  0.00  0.00    +0.145 HD
ATOM     24  H   LIG    1      -10.569   3.614   4.273  0.00  0.00    +0.145 HD
ATOM     25  O   LIG    1       -8.197   2.852   4.083  0.00  0.00    -0.270 OA
ENDBRANCH  10  21
BRANCH  12  26
ATOM     26  N   LIG    1       -9.345   3.708  -1.504  0.00  0.00    -0.299 NA
ATOM     27  C   LIG    1      -10.803   3.666  -1.356  0.00  0.00    +0.105 C 
ATOM     28  C   LIG    1       -9.056   3.581  -2.935  0.00  0.00    +0.105 C 
ENDBRANCH  12  26
BRANCH  18  29
ATOM     29  N   LIG    1       -2.727  -2.143   0.250  0.00  0.00    -0.336 N 
ATOM     30  C   LIG    1       -2.308  -3.291  -0.551  0.00  0.00    +0.129 C 
ATOM     31  C   LIG    1       -3.027  -2.446   1.646  0.00  0.00    +0.129 C 
ENDBRANCH  18  29
BRANCH   1  32
ATOM     32  O   LIG    1        0.141   2.619  -0.396  0.00  0.00    -0.506 OA
ATOM     33  H   LIG    1        1.065   2.426  -0.568  0.00  0.00    +0.292 HD
ENDBRANCH   1  32
BRANCH   6  34
ATOM     34  O   LIG    1       -4.499   5.182   0.626  0.00  0.00    -0.507 OA
ATOM     35  H   LIG    1       -5.221   5.811   0.711  0.00  0.00    +0.292 HD
ENDBRANCH   6  34
BRANCH   7  36
ATOM     36  O   LIG    1       -6.882   5.219  -0.648  0.00  0.00    -0.373 OA
ATOM     37  H   LIG    1       -7.814   5.176  -0.877  0.00  0.00    +0.211 HD
ENDBRANCH   7  36
BRANCH  11  38
ATOM     38  O   LIG    1      -10.089   1.798   0.937  0.00  0.00    -0.509 OA
ATOM     39  H   LIG    1      -10.344   1.443   0.083  0.00  0.00    +0.292 HD
ENDBRANCH  11  38
BRANCH  20  40
ATOM     40  C   LIG    1        1.552   0.168  -0.581  0.00  0.00    +0.120 C 
BRANCH  40  41
ATOM     41  N   LIG    1        2.354   0.521   0.587  0.00  0.00    -0.311 NA
ATOM     42  H   LIG    1        2.202   1.482   0.859  0.00  0.00    +0.122 HD
BRANCH  41  43
ATOM     43  C   LIG    1        2.181  -0.387   1.720  0.00  0.00    +0.087 C 
BRANCH  43  44
ATOM     44  C   LIG    1        3.020   0.022   2.963  0.00  0.00    -0.025 C 
ATOM     45  C   LIG    1        2.604   1.424   3.470  0.00  0.00    +0.012 C 
ATOM     46  C   LIG    1        2.754  -1.007   4.085  0.00  0.00    +0.012 C 
ATOM     47  C   LIG    1        4.534   0.016   2.637  0.00  0.00    +0.012 C 
ENDBRANCH  43  44
ENDBRANCH  41  43
ENDBRANCH  40  41
ENDBRANCH  20  40
TORSDOF 11
