REMARK  Name = DB12713
REMARK                            x       y       z     vdW  Elec       q    Type
REMARK                         _______ _______ _______ _____ _____    ______ ____
ROOT
ATOM      1  C   LIG    1       -2.147   1.114   0.009  0.00  0.00    -0.024 A 
ATOM      2  C   LIG    1       -2.833  -0.091  -0.215  0.00  0.00    +0.044 A 
ATOM      3 CL   LIG    1       -4.563  -0.161  -0.230  0.00  0.00    -0.083 Cl
ATOM      4  C   LIG    1       -2.122  -1.273  -0.431  0.00  0.00    +0.020 A 
ATOM      5  C   LIG    1       -0.729  -1.269  -0.428  0.00  0.00    +0.008 A 
ATOM      6  C   LIG    1       -0.025  -0.079  -0.228  0.00  0.00    -0.016 A 
ATOM      7  C   LIG    1       -0.745   1.104  -0.019  0.00  0.00    +0.011 A 
ENDROOT
BRANCH   6   8
ATOM      8  C   LIG    1        1.508  -0.075  -0.211  0.00  0.00    +0.181 C 
ATOM      9  O   LIG    1        1.990   1.077   0.484  0.00  0.00    -0.353 OA
ATOM     10  C   LIG    1        3.396   1.145   0.699  0.00  0.00    +0.207 C 
ATOM     11  C   LIG    1        4.135   1.168  -0.662  0.00  0.00    +0.184 C 
ATOM     12  C   LIG    1        3.684  -0.009  -1.561  0.00  0.00    +0.178 C 
ATOM     13  C   LIG    1        2.139  -0.108  -1.632  0.00  0.00    +0.179 C 
BRANCH  10  14
ATOM     14  S   LIG    1        3.756   2.640   1.674  0.00  0.00    -0.131 S 
ATOM     15  C   LIG    1        2.853   2.259   3.199  0.00  0.00    +0.087 C 
ENDBRANCH  10  14
BRANCH  11  16
ATOM     16  O   LIG    1        5.542   1.171  -0.486  0.00  0.00    -0.386 OA
ATOM     17  H   LIG    1        5.749   0.725   0.339  0.00  0.00    +0.210 HD
ENDBRANCH  11  16
BRANCH  12  18
ATOM     18  O   LIG    1        4.263   0.071  -2.853  0.00  0.00    -0.386 OA
ATOM     19  H   LIG    1        3.959   0.876  -3.277  0.00  0.00    +0.210 HD
ENDBRANCH  12  18
BRANCH  13  20
ATOM     20  O   LIG    1        1.739  -1.250  -2.373  0.00  0.00    -0.386 OA
ATOM     21  H   LIG    1        1.847  -2.028  -1.822  0.00  0.00    +0.210 HD
ENDBRANCH  13  20
ENDBRANCH   6   8
BRANCH   1  22
ATOM     22  C   LIG    1       -2.910   2.415   0.294  0.00  0.00    +0.071 C 
BRANCH  22  26
ATOM     23  C   LIG    1       -0.576   5.503   2.221  0.00  0.00    +0.121 A 
ATOM     24  C   LIG    1       -1.098   4.435   2.969  0.00  0.00    +0.046 A 
ATOM     25  C   LIG    1       -1.865   3.454   2.348  0.00  0.00    +0.007 A 
ATOM     26  C   LIG    1       -2.109   3.522   0.975  0.00  0.00    -0.043 A 
ATOM     27  C   LIG    1       -1.613   4.594   0.231  0.00  0.00    +0.007 A 
ATOM     28  C   LIG    1       -0.849   5.576   0.854  0.00  0.00    +0.046 A 
BRANCH  23  29
ATOM     29  O   LIG    1        0.209   6.511   2.748  0.00  0.00    -0.492 OA
BRANCH  29  31
ATOM     30  C   LIG    1        1.467   7.667   4.439  0.00  0.00    +0.048 C 
ATOM     31  C   LIG    1        0.561   6.472   4.128  0.00  0.00    +0.225 C 
ENDBRANCH  29  31
ENDBRANCH  23  29
ENDBRANCH  22  26
ENDBRANCH   1  22
TORSDOF 9
