REMARK  Name = DB12987
REMARK                            x       y       z     vdW  Elec       q    Type
REMARK                         _______ _______ _______ _____ _____    ______ ____
ROOT
ATOM      1  C   LIG    1        1.350  -0.004  -0.006  0.00  0.00    +0.164 A 
ATOM      2  C   LIG    1        2.074  -0.008   1.192  0.00  0.00    +0.145 A 
ATOM      3 CL   LIG    1        1.258  -0.025   2.720  0.00  0.00    -0.074 Cl
ATOM      4  C   LIG    1        3.469  -0.002   1.136  0.00  0.00    +0.237 A 
ATOM      5  N   LIG    1        4.139   0.001  -0.050  0.00  0.00    -0.211 NA
ATOM      6  C   LIG    1        3.444  -0.008  -1.221  0.00  0.00    +0.117 A 
ATOM      7  C   LIG    1        2.034  -0.015  -1.231  0.00  0.00    +0.110 A 
ATOM      8 CL   LIG    1        1.115  -0.043  -2.702  0.00  0.00    -0.078 Cl
ENDROOT
BRANCH   6   9
ATOM      9  C   LIG    1        4.297  -0.009  -2.510  0.00  0.00    +0.234 C 
ATOM     10 CL   LIG    1        6.066   0.013  -2.206  0.00  0.00    -0.077 Cl
ATOM     11 CL   LIG    1        3.939   1.435  -3.497  0.00  0.00    -0.077 Cl
ATOM     12 CL   LIG    1        3.970  -1.477  -3.473  0.00  0.00    -0.077 Cl
ENDBRANCH   6   9
BRANCH   1  14
ATOM     13  C   LIG    1       -0.618   1.276   0.036  0.00  0.00    +0.277 C 
ATOM     14  O   LIG    1       -0.024  -0.016   0.022  0.00  0.00    -0.492 OA
ENDBRANCH   1  14
BRANCH   4  15
ATOM     15  O   LIG    1        4.193   0.001   2.317  0.00  0.00    -0.479 OA
ATOM     16  C   LIG    1        5.619   0.001   2.272  0.00  0.00    +0.279 C 
ENDBRANCH   4  15
TORSDOF 3
