REMARK  Name = DB12619
REMARK                            x       y       z     vdW  Elec       q    Type
REMARK                         _______ _______ _______ _____ _____    ______ ____
ROOT
ATOM      1  C   LIG    1       -0.028  -1.823  -2.339  0.00  0.00    +0.043 C 
ATOM      2  C   LIG    1       -0.904  -0.928  -1.458  0.00  0.00    -0.029 C 
ATOM      3  C   LIG    1       -0.248  -0.338  -0.193  0.00  0.00    +0.205 C 
ATOM      4  C   LIG    1       -0.660   1.158  -0.025  0.00  0.00    +0.088 C 
ATOM      5  C   LIG    1       -2.123   1.528  -0.474  0.00  0.00    +0.116 C 
ATOM      6  C   LIG    1       -3.007   0.242  -0.702  0.00  0.00    +0.023 C 
ATOM      7  C   LIG    1       -3.130  -0.624   0.606  0.00  0.00    +0.018 C 
ATOM      8  C   LIG    1       -4.477   0.625  -1.088  0.00  0.00    +0.018 C 
ATOM      9  C   LIG    1       -2.059   2.519  -1.750  0.00  0.00    +0.217 C 
ATOM     10  C   LIG    1       -1.274   2.067  -3.078  0.00  0.00    +0.097 C 
ATOM     11  C   LIG    1       -0.074   2.993  -3.566  0.00  0.00    +0.173 C 
ATOM     12  C   LIG    1       -0.458   4.427  -4.013  0.00  0.00    +0.211 C 
ATOM     13  O   LIG    1        0.014   4.147  -5.400  0.00  0.00    -0.368 OA
ATOM     14  C   LIG    1        0.480   2.783  -5.003  0.00  0.00    +0.167 C 
ATOM     15  C   LIG    1       -0.136   1.720  -5.933  0.00  0.00    +0.068 C 
ATOM     16  C   LIG    1       -1.233   0.817  -5.337  0.00  0.00    +0.131 C 
ATOM     17  C   LIG    1       -2.173   1.518  -4.288  0.00  0.00    +0.066 C 
ATOM     18  C   LIG    1       -2.962   2.676  -4.994  0.00  0.00    +0.022 C 
ATOM     19  C   LIG    1       -3.239   0.427  -3.870  0.00  0.00    +0.187 C 
ATOM     20  O   LIG    1       -4.433   0.558  -4.164  0.00  0.00    -0.292 OA
ATOM     21  C   LIG    1       -2.802  -0.871  -3.131  0.00  0.00    +0.270 C 
ATOM     22  C   LIG    1       -2.196  -0.583  -1.752  0.00  0.00    -0.011 C 
ENDROOT
BRANCH   5  23
ATOM     23  O   LIG    1       -2.712   2.327   0.550  0.00  0.00    -0.384 OA
ATOM     24  H   LIG    1       -2.699   1.830   1.371  0.00  0.00    +0.210 HD
ENDBRANCH   5  23
BRANCH  16  25
ATOM     25  O   LIG    1       -1.912   0.204  -6.426  0.00  0.00    -0.391 OA
ATOM     26  H   LIG    1       -1.280  -0.310  -6.934  0.00  0.00    +0.210 HD
ENDBRANCH  16  25
BRANCH   3  27
ATOM     27  O   LIG    1        1.182  -0.383  -0.189  0.00  0.00    -0.455 OA
BRANCH  27  28
ATOM     28  C   LIG    1        1.875  -1.397   0.386  0.00  0.00    +0.339 C 
ATOM     29  O   LIG    1        1.401  -2.468   0.774  0.00  0.00    -0.248 OA
BRANCH  28  30
ATOM     30  C   LIG    1        3.365  -1.042   0.549  0.00  0.00    +0.247 C 
BRANCH  30  31
ATOM     31  O   LIG    1        4.138  -2.208   0.306  0.00  0.00    -0.379 OA
ATOM     32  H   LIG    1        3.968  -2.510  -0.590  0.00  0.00    +0.211 HD
ENDBRANCH  30  31
BRANCH  30  33
ATOM     33  C   LIG    1        3.694  -0.454   1.961  0.00  0.00    +0.143 C 
BRANCH  33  34
ATOM     34  C   LIG    1        2.793   0.723   2.362  0.00  0.00    -0.024 A 
ATOM     35  C   LIG    1        2.829   1.913   1.629  0.00  0.00    +0.005 A 
ATOM     36  C   LIG    1        1.987   2.970   1.964  0.00  0.00    +0.000 A 
ATOM     37  C   LIG    1        1.106   2.836   3.033  0.00  0.00    +0.000 A 
ATOM     38  C   LIG    1        1.059   1.654   3.770  0.00  0.00    +0.000 A 
ATOM     39  C   LIG    1        1.902   0.597   3.434  0.00  0.00    +0.005 A 
ENDBRANCH  33  34
BRANCH  33  40
ATOM     40  N   LIG    1        5.108  -0.075   2.092  0.00  0.00    -0.301 N 
ATOM     41  H   LIG    1        5.361   0.809   1.677  0.00  0.00    +0.150 HD
ATOM     42  C   LIG    1        6.103  -0.831   2.600  0.00  0.00    +0.245 C 
ATOM     43  O   LIG    1        5.917  -1.955   3.070  0.00  0.00    -0.270 OA
BRANCH  42  44
ATOM     44  C   LIG    1        7.484  -0.209   2.599  0.00  0.00    +0.037 A 
ATOM     45  C   LIG    1        7.791   0.896   1.787  0.00  0.00    +0.013 A 
ATOM     46  C   LIG    1        9.068   1.453   1.803  0.00  0.00    +0.001 A 
ATOM     47  C   LIG    1       10.048   0.909   2.627  0.00  0.00    +0.000 A 
ATOM     48  C   LIG    1        9.764  -0.189   3.434  0.00  0.00    +0.001 A 
ATOM     49  C   LIG    1        8.488  -0.746   3.419  0.00  0.00    +0.013 A 
ENDBRANCH  42  44
ENDBRANCH  33  40
ENDBRANCH  30  33
ENDBRANCH  28  30
ENDBRANCH  27  28
ENDBRANCH   3  27
BRANCH   9  50
ATOM     50  O   LIG    1       -1.474   3.761  -1.317  0.00  0.00    -0.454 OA
BRANCH  50  51
ATOM     51  C   LIG    1       -2.178   4.915  -1.152  0.00  0.00    +0.340 C 
ATOM     52  O   LIG    1       -3.384   5.023  -1.387  0.00  0.00    -0.245 OA
BRANCH  51  53
ATOM     53  C   LIG    1       -1.310   6.058  -0.713  0.00  0.00    +0.059 A 
ATOM     54  C   LIG    1       -1.837   7.357  -0.706  0.00  0.00    +0.015 A 
ATOM     55  C   LIG    1       -1.050   8.435  -0.311  0.00  0.00    +0.001 A 
ATOM     56  C   LIG    1        0.269   8.222   0.083  0.00  0.00    +0.000 A 
ATOM     57  C   LIG    1        0.806   6.938   0.088  0.00  0.00    +0.001 A 
ATOM     58  C   LIG    1        0.020   5.859  -0.306  0.00  0.00    +0.015 A 
ENDBRANCH  51  53
ENDBRANCH  50  51
ENDBRANCH   9  50
BRANCH  11  59
ATOM     59  O   LIG    1        0.957   2.952  -2.546  0.00  0.00    -0.422 OA
BRANCH  59  60
ATOM     60  C   LIG    1        2.123   3.668  -2.545  0.00  0.00    +0.511 C 
ATOM     61  O   LIG    1        2.534   4.410  -3.441  0.00  0.00    -0.203 OA
BRANCH  60  62
ATOM     62  O   LIG    1        2.742   3.442  -1.373  0.00  0.00    -0.437 OA
ATOM     63  C   LIG    1        3.961   4.111  -1.074  0.00  0.00    +0.284 C 
ENDBRANCH  60  62
ENDBRANCH  59  60
ENDBRANCH  11  59
BRANCH  21  64
ATOM     64  O   LIG    1       -3.870  -1.818  -2.994  0.00  0.00    -0.449 OA
BRANCH  64  65
ATOM     65  C   LIG    1       -4.160  -2.724  -3.960  0.00  0.00    +0.305 C 
ATOM     66  C   LIG    1       -5.343  -3.606  -3.585  0.00  0.00    +0.136 C 
ATOM     67  O   LIG    1       -3.571  -2.861  -5.033  0.00  0.00    -0.251 OA
ENDBRANCH  64  65
ENDBRANCH  21  64
TORSDOF 18
