REMARK  Name = DB12266
REMARK                            x       y       z     vdW  Elec       q    Type
REMARK                         _______ _______ _______ _____ _____    ______ ____
ROOT
ATOM      1  N   UNK A  1        1.403   0.852   0.193  0.00  0.00    -0.302 N 
ATOM      2  H   UNK A  1        1.601   1.172   1.130  0.00  0.00    +0.150 HD
ATOM      3  C   UNK A  1        2.344   0.165  -0.475  0.00  0.00    +0.234 C 
ATOM      4  O   UNK A  1        2.217  -0.274  -1.618  0.00  0.00    -0.274 OA
ENDROOT
BRANCH   1   5
ATOM      5  C   UNK A  1        0.113   1.278  -0.346  0.00  0.00    +0.169 C 
BRANCH   5   8
ATOM      6  N   UNK A  1       -0.316   3.475  -1.334  0.00  0.00    -0.300 N 
ATOM      7  H   UNK A  1       -0.611   2.939  -2.138  0.00  0.00    +0.150 HD
ATOM      8  C   UNK A  1        0.063   2.811  -0.229  0.00  0.00    +0.235 C 
ATOM      9  O   UNK A  1        0.385   3.352   0.830  0.00  0.00    -0.274 OA
BRANCH   6  10
ATOM     10  C   UNK A  1       -0.242   4.932  -1.538  0.00  0.00    +0.192 C 
BRANCH  10  11
ATOM     11  C   UNK A  1       -1.603   5.662  -1.177  0.00  0.00    +0.326 C 
ATOM     12  O   UNK A  1       -2.113   5.335  -0.080  0.00  0.00    -0.249 OA
BRANCH  11  13
ATOM     13  O   UNK A  1       -1.980   6.574  -1.952  0.00  0.00    -0.479 OA
ATOM     14  H   UNK A  1       -1.518   6.729  -2.752  0.00  0.00    +0.295 HD
ENDBRANCH  11  13
ENDBRANCH  10  11
BRANCH  10  15
ATOM     15  C   UNK A  1        0.265   5.207  -2.985  0.00  0.00    +0.114 C 
BRANCH  15  16
ATOM     16  S   UNK A  1        1.979   4.721  -3.351  0.00  0.00    -0.091 S 
BRANCH  16  17
ATOM     17  S   UNK A  1        1.970   2.691  -3.592  0.00  0.00    -0.090 S 
BRANCH  17  18
ATOM     18  C   UNK A  1        1.194   2.357  -5.202  0.00  0.00    +0.122 C 
BRANCH  18  19
ATOM     19  C   UNK A  1        2.017   2.629  -6.476  0.00  0.00    +0.247 C 
BRANCH  19  20
ATOM     20  O   UNK A  1        2.148   4.021  -6.753  0.00  0.00    -0.433 OA
BRANCH  20  21
ATOM     21  C   UNK A  1        3.289   4.692  -6.502  0.00  0.00    +0.510 C 
ATOM     22  O   UNK A  1        4.346   4.210  -6.084  0.00  0.00    -0.203 OA
BRANCH  21  23
ATOM     23  O   UNK A  1        3.048   5.993  -6.741  0.00  0.00    -0.436 OA
BRANCH  23  24
ATOM     24  C   UNK A  1        4.020   6.980  -6.421  0.00  0.00    +0.217 C 
BRANCH  24  25
ATOM     25  C   UNK A  1        3.415   8.382  -6.597  0.00  0.00    -0.036 C 
BRANCH  25  26
ATOM     26  N   UNK A  1        2.539   8.726  -5.380  0.00  0.00    +0.384 N 
ATOM     27  H   UNK A  1        1.720   8.143  -5.278  0.00  0.00    -0.081 HD
ATOM     28  C   UNK A  1        2.371  10.144  -4.934  0.00  0.00    -0.078 C 
ATOM     29  C   UNK A  1        0.951  10.618  -4.553  0.00  0.00    +0.032 C 
ATOM     30  C   UNK A  1        0.501  11.881  -5.324  0.00  0.00    +0.201 C 
ATOM     31  O   UNK A  1        1.250  13.016  -4.859  0.00  0.00    -0.457 OA
ATOM     32  C   UNK A  1        2.193  13.626  -5.618  0.00  0.00    +0.310 C 
ATOM     33  O   UNK A  1        2.658  13.198  -6.675  0.00  0.00    -0.251 OA
ATOM     34  C   UNK A  1        2.627  14.980  -5.039  0.00  0.00    +0.152 C 
ATOM     35  C   UNK A  1        4.120  15.190  -4.628  0.00  0.00    +0.138 C 
ATOM     36  C   UNK A  1        4.645  14.653  -3.230  0.00  0.00    +0.050 C 
ATOM     37  C   UNK A  1        5.894  15.489  -2.834  0.00  0.00    +0.021 C 
ATOM     38  C   UNK A  1        3.559  14.937  -2.160  0.00  0.00    +0.021 C 
ATOM     39  C   UNK A  1        4.968  13.115  -3.216  0.00  0.00    +0.147 C 
ATOM     40  O   UNK A  1        4.552  12.378  -4.110  0.00  0.00    -0.296 OA
ATOM     41  C   UNK A  1        5.788  12.491  -2.047  0.00  0.00    +0.081 C 
ATOM     42  C   UNK A  1        7.298  12.552  -2.422  0.00  0.00    +0.018 C 
ATOM     43  C   UNK A  1        5.355  11.014  -1.684  0.00  0.00    +0.127 C 
ATOM     44  C   UNK A  1        4.057  10.814  -0.827  0.00  0.00    +0.015 C 
ATOM     45  C   UNK A  1        2.813  11.557  -1.343  0.00  0.00    +0.010 C 
ATOM     46  C   UNK A  1        3.721   9.321  -0.521  0.00  0.00    +0.006 C 
ATOM     47  C   UNK A  1        3.679   8.313  -1.698  0.00  0.00    -0.001 C 
ATOM     48  C   UNK A  1        2.608   8.555  -2.787  0.00  0.00    -0.017 C 
ATOM     49  C   UNK A  1        3.160   9.176  -4.091  0.00  0.00    -0.082 C 
BRANCH  30  50
ATOM     50  C   UNK A  1       -1.012  12.137  -5.239  0.00  0.00    -0.031 C 
ATOM     51  C   UNK A  1       -1.548  13.202  -4.595  0.00  0.00    +0.031 C 
ATOM     52  C   UNK A  1       -1.858  11.106  -5.980  0.00  0.00    +0.043 C 
BRANCH  51  53
ATOM     53  C   UNK A  1       -2.946  13.564  -4.425  0.00  0.00    +0.071 A 
ATOM     54  N   UNK A  1       -3.234  14.849  -4.530  0.00  0.00    -0.245 NA
ATOM     55  C   UNK A  1       -4.508  15.107  -4.348  0.00  0.00    +0.076 A 
ATOM     56  C   UNK A  1       -5.080  16.504  -4.427  0.00  0.00    +0.073 C 
ATOM     57  S   UNK A  1       -5.465  13.700  -4.004  0.00  0.00    -0.080 S 
ATOM     58  C   UNK A  1       -4.026  12.738  -4.123  0.00  0.00    +0.074 A 
ENDBRANCH  51  53
ENDBRANCH  30  50
BRANCH  43  59
ATOM     59  O   UNK A  1        6.394  10.355  -0.972  0.00  0.00    -0.391 OA
ATOM     60  H   UNK A  1        7.211  10.448  -1.466  0.00  0.00    +0.210 HD
ENDBRANCH  43  59
BRANCH  35  61
ATOM     61  O   UNK A  1        4.997  14.873  -5.700  0.00  0.00    -0.390 OA
ATOM     62  H   UNK A  1        5.882  15.165  -5.469  0.00  0.00    +0.210 HD
ENDBRANCH  35  61
ENDBRANCH  25  26
ENDBRANCH  24  25
ENDBRANCH  23  24
ENDBRANCH  21  23
ENDBRANCH  20  21
ENDBRANCH  19  20
ENDBRANCH  18  19
ENDBRANCH  17  18
ENDBRANCH  16  17
ENDBRANCH  15  16
ENDBRANCH  10  15
ENDBRANCH   6  10
ENDBRANCH   5   8
BRANCH   5  63
ATOM     63  C   UNK A  1       -1.057   0.596   0.410  0.00  0.00    +0.152 C 
BRANCH  63  64
ATOM     64  C   UNK A  1       -2.479   0.816  -0.145  0.00  0.00    +0.307 C 
ATOM     65  O   UNK A  1       -2.619   1.119  -1.352  0.00  0.00    -0.251 OA
BRANCH  64  66
ATOM     66  O   UNK A  1       -3.421   0.525   0.625  0.00  0.00    -0.481 OA
ATOM     67  H   UNK A  1       -3.245   0.308   1.519  0.00  0.00    +0.295 HD
ENDBRANCH  64  66
ENDBRANCH  63  64
ENDBRANCH   5  63
ENDBRANCH   1   5
BRANCH   3  68
ATOM     68  C   UNK A  1        3.680  -0.007   0.262  0.00  0.00    +0.159 C 
BRANCH  68  69
ATOM     69  N   UNK A  1        4.146  -1.384   0.116  0.00  0.00    -0.302 N 
ATOM     70  H   UNK A  1        3.897  -1.841  -0.750  0.00  0.00    +0.150 HD
ATOM     71  C   UNK A  1        4.854  -2.057   1.036  0.00  0.00    +0.234 C 
ATOM     72  O   UNK A  1        5.186  -1.598   2.130  0.00  0.00    -0.274 OA
BRANCH  71  73
ATOM     73  C   UNK A  1        5.224  -3.503   0.654  0.00  0.00    +0.169 C 
BRANCH  73  74
ATOM     74  N   UNK A  1        6.430  -3.991   1.337  0.00  0.00    -0.303 N 
ATOM     75  H   UNK A  1        6.277  -4.750   1.986  0.00  0.00    +0.149 HD
ATOM     76  C   UNK A  1        7.684  -3.533   1.159  0.00  0.00    +0.214 C 
ATOM     77  O   UNK A  1        7.953  -2.624   0.373  0.00  0.00    -0.276 OA
BRANCH  76  78
ATOM     78  C   UNK A  1        8.828  -4.192   1.953  0.00  0.00    +0.098 C 
BRANCH  78  79
ATOM     79  C   UNK A  1        8.414  -5.260   3.000  0.00  0.00    +0.043 C 
BRANCH  79  80
ATOM     80  C   UNK A  1        9.543  -5.683   3.990  0.00  0.00    +0.182 C 
BRANCH  80  81
ATOM     81  N   UNK A  1       10.705  -6.288   3.304  0.00  0.00    -0.298 N 
ATOM     82  H   UNK A  1       10.715  -7.298   3.316  0.00  0.00    +0.150 HD
ATOM     83  C   UNK A  0       11.778  -5.646   2.801  0.00  0.00    +0.245 C 
ATOM     84  O   UNK A  0       11.916  -4.422   2.864  0.00  0.00    -0.270 OA
BRANCH  83  85
ATOM     85  C   UNK A  0       12.847  -6.513   2.168  0.00  0.00    +0.037 A 
ATOM     86  C   UNK A  0       14.126  -5.987   1.944  0.00  0.00    +0.015 A 
ATOM     87  C   UNK A  0       15.124  -6.765   1.363  0.00  0.00    +0.023 A 
ATOM     88  C   UNK A  0       14.858  -8.087   0.987  0.00  0.00    +0.027 A 
ATOM     89  C   UNK A  0       13.585  -8.616   1.204  0.00  0.00    +0.023 A 
ATOM     90  C   UNK A  0       12.588  -7.839   1.788  0.00  0.00    +0.015 A 
BRANCH  88  91
ATOM     91  N   UNK A  0       15.820  -8.926   0.396  0.00  0.00    -0.338 N 
ATOM     92  H   UNK A  0       15.511  -9.806   0.010  0.00  0.00    +0.146 HD
BRANCH  91  93
ATOM     93  C   UNK A  0       17.165  -8.467   0.046  0.00  0.00    +0.158 C 
BRANCH  93  94
ATOM     94  C   UNK A  0       18.095  -8.308   1.249  0.00  0.00    +0.077 A 
ATOM     95  N   UNK A  0       17.969  -9.190   2.283  0.00  0.00    -0.240 NA
ATOM     96  C   UNK A  0       18.826  -9.038   3.326  0.00  0.00    +0.172 A 
ATOM     97  C   UNK A  0       18.728  -9.976   4.513  0.00  0.00    +0.280 A 
ATOM     98  O   UNK A  0       17.925 -10.899   4.642  0.00  0.00    -0.265 OA
ATOM     99  N   UNK A  0       19.659  -9.687   5.467  0.00  0.00    -0.293 N 
ATOM    100  H   UNK A  0       19.634 -10.283   6.281  0.00  0.00    +0.172 HD
ATOM    101  C   UNK A  0       20.606  -8.689   5.439  0.00  0.00    +0.195 A 
ATOM    102  N   UNK A  0       20.691  -7.891   4.432  0.00  0.00    -0.195 NA
ATOM    103  C   UNK A  0       19.810  -8.033   3.342  0.00  0.00    +0.187 A 
ATOM    104  N   UNK A  0       19.944  -7.168   2.303  0.00  0.00    -0.232 NA
ATOM    105  C   UNK A  0       19.085  -7.316   1.258  0.00  0.00    +0.138 A 
BRANCH 101 106
ATOM    106  N   UNK A  0       21.476  -8.563   6.542  0.00  0.00    -0.329 N 
ATOM    107  H   UNK A  0       21.556  -9.291   7.236  0.00  0.00    +0.145 HD
ATOM    108  H   UNK A  0       22.252  -7.917   6.520  0.00  0.00    +0.145 HD
ENDBRANCH 101 106
ENDBRANCH  93  94
ENDBRANCH  91  93
ENDBRANCH  88  91
ENDBRANCH  83  85
ENDBRANCH  80  81
BRANCH  80 109
ATOM    109  C   UNK A  1        8.968  -6.652   5.101  0.00  0.00    +0.325 C 
ATOM    110  O   UNK A  1        8.237  -6.079   5.943  0.00  0.00    -0.249 OA
BRANCH 109 111
ATOM    111  O   UNK A  1        9.275  -7.868   5.043  0.00  0.00    -0.479 OA
ATOM    112  H   UNK A  1        9.835  -8.178   4.359  0.00  0.00    +0.295 HD
ENDBRANCH 109 111
ENDBRANCH  80 109
ENDBRANCH  79  80
ENDBRANCH  78  79
ENDBRANCH  76  78
ENDBRANCH  73  74
BRANCH  73 113
ATOM    113  C   UNK A  1        3.998  -4.429   0.867  0.00  0.00    +0.152 C 
BRANCH 113 114
ATOM    114  C   UNK A  1        4.283  -5.921   0.631  0.00  0.00    +0.307 C 
ATOM    115  O   UNK A  1        4.546  -6.625   1.633  0.00  0.00    -0.251 OA
BRANCH 114 116
ATOM    116  O   UNK A  1        4.385  -6.298  -0.558  0.00  0.00    -0.481 OA
ATOM    117  H   UNK A  1        4.169  -5.711  -1.255  0.00  0.00    +0.295 HD
ENDBRANCH 114 116
ENDBRANCH 113 114
ENDBRANCH  73 113
ENDBRANCH  71  73
ENDBRANCH  68  69
BRANCH  68 118
ATOM    118  C   UNK A  1        4.779   0.962  -0.249  0.00  0.00    +0.033 C 
BRANCH 118 119
ATOM    119  C   UNK A  1        4.385   2.451  -0.360  0.00  0.00    +0.017 C 
BRANCH 119 120
ATOM    120  C   UNK A  1        4.000   3.114   0.974  0.00  0.00    +0.084 C 
BRANCH 120 121
ATOM    121  N   UNK A  1        3.425   4.455   0.770  0.00  0.00    -0.283 NA
ATOM    122  H   UNK A  1        3.499   4.822  -0.168  0.00  0.00    +0.125 HD
BRANCH 121 123
ATOM    123  C   UNK A  1        2.769   5.200   1.683  0.00  0.00    +0.167 C 
BRANCH 123 124
ATOM    124  N   UNK A  1        2.255   6.378   1.310  0.00  0.00    -0.297 NA
ATOM    125  H   UNK A  1        1.735   6.937   1.971  0.00  0.00    +0.121 HD
ATOM    126  H   UNK A  1        2.341   6.690   0.353  0.00  0.00    +0.121 HD
ENDBRANCH 123 124
BRANCH 123 127
ATOM    127  N   UNK A  1        2.607   4.801   2.955  0.00  0.00    -0.297 NA
ATOM    128  H   UNK A  1        2.973   3.909   3.253  0.00  0.00    +0.121 HD
ATOM    129  H   UNK A  1        2.088   5.372   3.606  0.00  0.00    +0.121 HD
ENDBRANCH 123 127
ENDBRANCH 121 123
ENDBRANCH 120 121
ENDBRANCH 119 120
ENDBRANCH 118 119
ENDBRANCH  68 118
ENDBRANCH   3  68
TORSDOF 48
