REMARK  Name = DB12422
REMARK                            x       y       z     vdW  Elec       q    Type
REMARK                         _______ _______ _______ _____ _____    ______ ____
ROOT
ATOM      1  C   LIG    1        1.497  -0.028   0.026  0.00  0.00    +0.015 C 
ENDROOT
BRANCH   1   2
ATOM      2  C   LIG    1       -0.039   0.026   0.003  0.00  0.00    +0.103 C 
BRANCH   2   4
ATOM      3  C   LIG    1       -2.426   1.452   0.179  0.00  0.00    +0.121 C 
ATOM      4  S   LIG    1       -0.614   1.791  -0.017  0.00  0.00    +0.019 S 
ATOM      5  O   LIG    1       -0.130   2.441   1.280  0.00  0.00    -0.257 OA
ENDBRANCH   2   4
ENDBRANCH   1   2
BRANCH   1   6
ATOM      6  C   LIG    1        2.047  -1.468   0.037  0.00  0.00    +0.025 C 
BRANCH   6   7
ATOM      7  C   LIG    1        3.584  -1.562   0.115  0.00  0.00    +0.153 C 
BRANCH   7   8
ATOM      8  N   LIG    1        4.194  -0.996  -1.057  0.00  0.00    -0.235 NA
ATOM      9  C   LIG    1        5.217  -1.060  -1.730  0.00  0.00    +0.036 C 
ATOM     10  S   LIG    1        6.483  -1.266  -2.668  0.00  0.00    +0.020 S 
ENDBRANCH   7   8
ENDBRANCH   6   7
ENDBRANCH   1   6
TORSDOF 5
