REMARK  Name = DB12282
REMARK                            x       y       z     vdW  Elec       q    Type
REMARK                         _______ _______ _______ _____ _____    ______ ____
ROOT
ATOM      1  C   LIG    1       -1.826   1.151   0.239  0.00  0.00    +0.221 A 
ATOM      2  N   LIG    1       -0.497   1.055  -0.013  0.00  0.00    -0.199 NA
ATOM      3  C   LIG    1        0.010  -0.161  -0.356  0.00  0.00    +0.136 A 
ATOM      4  C   LIG    1       -0.824  -1.292  -0.467  0.00  0.00    +0.113 A 
ATOM      5  C   LIG    1       -2.186  -1.089  -0.200  0.00  0.00    +0.130 A 
ATOM      6  N   LIG    1       -2.699   0.118   0.150  0.00  0.00    -0.222 NA
ENDROOT
BRANCH   4   7
ATOM      7  C   LIG    1       -0.296  -2.678  -0.850  0.00  0.00    +0.422 C 
ATOM      8  F   LIG    1       -1.262  -3.598  -0.880  0.00  0.00    -0.166 F 
ATOM      9  F   LIG    1        0.621  -3.075   0.032  0.00  0.00    -0.166 F 
ATOM     10  F   LIG    1        0.263  -2.630  -2.060  0.00  0.00    -0.166 F 
ENDBRANCH   4   7
BRANCH   1  11
ATOM     11  N   LIG    1       -2.390   2.385   0.599  0.00  0.00    -0.284 N 
ATOM     12  H   LIG    1       -3.394   2.344   0.695  0.00  0.00    +0.155 HD
BRANCH  11  16
ATOM     13  C   LIG    1       -0.949   6.259   1.474  0.00  0.00    +0.037 A 
ATOM     14  C   LIG    1       -0.046   5.188   1.386  0.00  0.00    +0.015 A 
ATOM     15  C   LIG    1       -0.493   3.902   1.097  0.00  0.00    +0.024 A 
ATOM     16  C   LIG    1       -1.855   3.657   0.883  0.00  0.00    +0.034 A 
ATOM     17  C   LIG    1       -2.757   4.717   0.977  0.00  0.00    +0.024 A 
ATOM     18  C   LIG    1       -2.312   6.003   1.266  0.00  0.00    +0.015 A 
BRANCH  13  22
ATOM     19  C   LIG    1        1.472   9.121   2.284  0.00  0.00    +0.128 C 
ATOM     20  N   LIG    1        0.833   7.847   1.976  0.00  0.00    -0.314 N 
ATOM     21  H   LIG    1        1.441   7.043   1.914  0.00  0.00    +0.149 HD
ATOM     22  C   LIG    1       -0.489   7.670   1.792  0.00  0.00    +0.244 C 
ATOM     23  O   LIG    1       -1.302   8.594   1.875  0.00  0.00    -0.270 OA
ENDBRANCH  13  22
ENDBRANCH  11  16
ENDBRANCH   1  11
BRANCH   3  24
ATOM     24  N   LIG    1        1.394  -0.269  -0.600  0.00  0.00    -0.323 N 
ATOM     25  H   LIG    1        1.758  -1.146  -0.944  0.00  0.00    +0.148 HD
BRANCH  24  26
ATOM     26  C   LIG    1        2.313   0.868  -0.503  0.00  0.00    +0.162 C 
BRANCH  26  27
ATOM     27  C   LIG    1        2.897   1.053   0.905  0.00  0.00    +0.099 A 
ATOM     28  N   LIG    1        1.997   1.100   1.928  0.00  0.00    -0.253 NA
ATOM     29  C   LIG    1        2.471   1.245   3.190  0.00  0.00    +0.131 A 
ATOM     30  C   LIG    1        3.837   1.345   3.441  0.00  0.00    +0.132 A 
ATOM     31  N   LIG    1        4.741   1.318   2.430  0.00  0.00    -0.236 NA
ATOM     32  C   LIG    1        4.281   1.190   1.150  0.00  0.00    +0.163 A 
BRANCH  32  33
ATOM     33  N   LIG    1        5.216   1.207   0.092  0.00  0.00    -0.192 N 
ATOM     34  C   LIG    1        6.472   0.500   0.343  0.00  0.00    +0.159 C 
BRANCH  33  35
ATOM     35  S   LIG    1        5.410   2.724  -0.837  0.00  0.00    +0.044 S 
ATOM     36  C   LIG    1        6.294   3.854   0.390  0.00  0.00    +0.218 C 
ATOM     37  O   LIG    1        4.074   3.277  -1.084  0.00  0.00    -0.155 OA
ATOM     38  O   LIG    1        6.316   2.441  -1.956  0.00  0.00    -0.155 OA
ENDBRANCH  33  35
ENDBRANCH  32  33
ENDBRANCH  26  27
ENDBRANCH  24  26
ENDBRANCH   3  24
TORSDOF 9
