REMARK  Name = DB12670
REMARK                            x       y       z     vdW  Elec       q    Type
REMARK                         _______ _______ _______ _____ _____    ______ ____
ROOT
ATOM      1  N   LIG    1        1.340  -0.001  -0.091  0.00  0.00    -0.276 N 
ATOM      2  C   LIG    1        1.914  -0.628   0.995  0.00  0.00    +0.334 A 
ATOM      3  O   LIG    1        1.229  -1.168   1.872  0.00  0.00    -0.246 OA
ATOM      4  N   LIG    1        3.308  -0.597   1.027  0.00  0.00    -0.259 N 
ATOM      5  C   LIG    1        4.210  -0.058   0.118  0.00  0.00    +0.282 A 
ATOM      6  O   LIG    1        5.437  -0.080   0.238  0.00  0.00    -0.265 OA
ATOM      7  C   LIG    1        3.490   0.536  -0.977  0.00  0.00    +0.149 A 
ATOM      8  N   LIG    1        3.944   1.176  -2.097  0.00  0.00    -0.336 N 
ATOM      9  H   LIG    1        4.908   1.338  -2.353  0.00  0.00    +0.167 HD
ATOM     10  C   LIG    1        2.829   1.561  -2.804  0.00  0.00    +0.116 A 
ATOM     11  N   LIG    1        1.718   1.199  -2.193  0.00  0.00    -0.214 NA
ATOM     12  C   LIG    1        2.115   0.576  -1.091  0.00  0.00    +0.168 A 
ENDROOT
BRANCH  10  13
ATOM     13  C   LIG    1        2.913   2.326  -4.123  0.00  0.00    +0.032 C 
ATOM     14  C   LIG    1        3.767   1.610  -5.232  0.00  0.00    +0.003 C 
ATOM     15  C   LIG    1        4.862   2.635  -5.597  0.00  0.00    +0.008 C 
ATOM     16  C   LIG    1        4.105   3.959  -5.402  0.00  0.00    -0.009 C 
ATOM     17  C   LIG    1        2.899   4.048  -6.405  0.00  0.00    +0.007 C 
ATOM     18  C   LIG    1        1.980   2.780  -6.282  0.00  0.00    -0.009 C 
ATOM     19  C   LIG    1        2.817   1.501  -6.445  0.00  0.00    +0.008 C 
ATOM     20  C   LIG    1        1.547   2.579  -4.821  0.00  0.00    +0.018 C 
ATOM     21  C   LIG    1        3.588   3.715  -3.976  0.00  0.00    +0.018 C 
ENDBRANCH  10  13
BRANCH   1  22
ATOM     22  C   LIG    1       -0.131   0.020  -0.238  0.00  0.00    +0.128 C 
BRANCH  22  24
ATOM     23  C   LIG    1       -0.598   1.671   1.705  0.00  0.00    +0.005 C 
ATOM     24  C   LIG    1       -0.787   1.341   0.216  0.00  0.00    +0.018 C 
ENDBRANCH  22  24
ENDBRANCH   1  22
BRANCH   4  25
ATOM     25  C   LIG    1        3.928  -1.243   2.215  0.00  0.00    +0.130 C 
BRANCH  25  26
ATOM     26  C   LIG    1        4.040  -0.311   3.440  0.00  0.00    +0.018 C 
ATOM     27  C   LIG    1        4.683  -1.004   4.647  0.00  0.00    +0.005 C 
ENDBRANCH  25  26
ENDBRANCH   4  25
TORSDOF 5
