REMARK  Name = DB12400
REMARK                            x       y       z     vdW  Elec       q    Type
REMARK                         _______ _______ _______ _____ _____    ______ ____
ROOT
ATOM      1  N   LIG    1        1.399   0.045  -0.042  0.00  0.00    -0.292 N 
ATOM      2  C   LIG    1        2.016   0.111  -1.273  0.00  0.00    +0.262 A 
ATOM      3  O   LIG    1        1.389   0.254  -2.328  0.00  0.00    -0.267 OA
ATOM      4  C   LIG    1        3.487   0.031  -1.241  0.00  0.00    +0.065 A 
ATOM      5  C   LIG    1        4.171  -0.016  -0.071  0.00  0.00    +0.028 A 
ATOM      6  C   LIG    1        3.488  -0.021   1.227  0.00  0.00    +0.039 A 
ATOM      7  C   LIG    1        4.125  -0.040   2.477  0.00  0.00    +0.052 A 
ATOM      8  C   LIG    1        5.639  -0.066   2.621  0.00  0.00    +0.066 C 
ATOM      9  N   LIG    1        3.421  -0.038   3.640  0.00  0.00    -0.219 NA
ATOM     10  C   LIG    1        2.069  -0.012   3.535  0.00  0.00    +0.215 A 
ATOM     11  N   LIG    1        1.366   0.010   2.375  0.00  0.00    -0.197 NA
ATOM     12  C   LIG    1        2.084   0.003   1.214  0.00  0.00    +0.149 A 
ENDROOT
BRANCH   4  13
ATOM     13  C   LIG    1        4.244  -0.013  -2.503  0.00  0.00    +0.071 A 
ATOM     14  N   LIG    1        5.542   0.413  -2.674  0.00  0.00    -0.277 N 
ATOM     15  H   LIG    1        6.103   0.812  -1.935  0.00  0.00    +0.189 HD
ATOM     16  N   LIG    1        6.027   0.269  -3.912  0.00  0.00    -0.182 NA
ATOM     17  C   LIG    1        5.036  -0.268  -4.579  0.00  0.00    +0.135 A 
ATOM     18  C   LIG    1        3.911  -0.471  -3.776  0.00  0.00    +0.049 A 
ENDBRANCH   4  13
BRANCH  10  19
ATOM     19  N   LIG    1        1.339  -0.007   4.718  0.00  0.00    -0.327 N 
ATOM     20  H   LIG    1        1.829  -0.021   5.601  0.00  0.00    +0.145 HD
ATOM     21  H   LIG    1        0.331   0.013   4.678  0.00  0.00    +0.145 HD
ENDBRANCH  10  19
BRANCH   1  23
ATOM     22  C   LIG    1       -0.642   1.523   0.092  0.00  0.00    +0.027 C 
ATOM     23  C   LIG    1       -0.084   0.095  -0.025  0.00  0.00    +0.123 C 
ENDBRANCH   1  23
TORSDOF 3
