REMARK  Name = DB12605
REMARK                            x       y       z     vdW  Elec       q    Type
REMARK                         _______ _______ _______ _____ _____    ______ ____
ROOT
ATOM      1  C   LIG    1        1.316  -0.176   0.090  0.00  0.00    +0.025 C 
ENDROOT
BRANCH   1   2
ATOM      2  C   LIG    1       -0.244  -0.128   0.017  0.00  0.00    +0.085 C 
BRANCH   2   3
ATOM      3  C   LIG    1       -0.723   1.347   0.051  0.00  0.00    -0.024 A 
ATOM      4  C   LIG    1       -0.309   2.233  -0.953  0.00  0.00    +0.054 A 
ATOM      5  C   LIG    1       -0.717   3.578  -0.966  0.00  0.00    +0.162 A 
ATOM      6  C   LIG    1       -1.558   4.051   0.051  0.00  0.00    +0.162 A 
ATOM      7  C   LIG    1       -1.976   3.168   1.059  0.00  0.00    +0.050 A 
ATOM      8  C   LIG    1       -1.565   1.838   1.057  0.00  0.00    +0.009 A 
BRANCH   5   9
ATOM      9  O   LIG    1       -0.334   4.485  -1.940  0.00  0.00    -0.491 OA
ATOM     10  C   LIG    1        0.505   4.058  -3.007  0.00  0.00    +0.277 C 
ENDBRANCH   5   9
BRANCH   6  11
ATOM     11  O   LIG    1       -1.932   5.382  -0.006  0.00  0.00    -0.491 OA
ATOM     12  C   LIG    1       -2.792   5.912   0.996  0.00  0.00    +0.277 C 
ENDBRANCH   6  11
ENDBRANCH   2   3
BRANCH   2  14
ATOM     13  C   LIG    1       -2.312  -0.766  -1.431  0.00  0.00    +0.009 C 
ATOM     14  C   LIG    1       -0.773  -0.837  -1.285  0.00  0.00    +0.007 C 
ATOM     15  C   LIG    1       -0.319  -2.308  -1.437  0.00  0.00    +0.009 C 
ENDBRANCH   2  14
BRANCH   2  16
ATOM     16  C   LIG    1       -0.751  -0.878   1.191  0.00  0.00    +0.074 C 
ATOM     17  N   LIG    1       -1.143  -1.467   2.108  0.00  0.00    -0.196 NA
ENDBRANCH   2  16
ENDBRANCH   1   2
BRANCH   1  18
ATOM     18  C   LIG    1        1.950   0.556   1.295  0.00  0.00    -0.017 C 
BRANCH  18  19
ATOM     19  C   LIG    1        3.479   0.376   1.343  0.00  0.00    -0.079 C 
BRANCH  19  20
ATOM     20  N   LIG    1        4.138   1.275   2.419  0.00  0.00    +0.378 N 
ATOM     21  H   LIG    1        3.867   2.229   2.225  0.00  0.00    -0.082 HD
ATOM     22  C   LIG    1        3.641   0.953   3.847  0.00  0.00    -0.096 C 
BRANCH  20  23
ATOM     23  C   LIG    1        5.686   1.235   2.367  0.00  0.00    -0.075 C 
BRANCH  23  24
ATOM     24  C   LIG    1        6.233   1.931   1.103  0.00  0.00    +0.016 C 
BRANCH  24  25
ATOM     25  C   LIG    1        7.751   2.034   1.129  0.00  0.00    -0.048 A 
ATOM     26  C   LIG    1        8.373   3.110   1.771  0.00  0.00    +0.018 A 
ATOM     27  C   LIG    1        9.772   3.218   1.811  0.00  0.00    +0.059 A 
ATOM     28  C   LIG    1       10.539   2.218   1.188  0.00  0.00    +0.015 A 
ATOM     29  C   LIG    1        9.922   1.144   0.547  0.00  0.00    +0.001 A 
ATOM     30  C   LIG    1        8.533   1.051   0.518  0.00  0.00    +0.003 A 
BRANCH  27  31
ATOM     31  C   LIG    1       10.403   4.385   2.513  0.00  0.00    +0.339 C 
ATOM     32  O   LIG    1        9.751   5.263   3.087  0.00  0.00    -0.245 OA
BRANCH  31  33
ATOM     33  O   LIG    1       11.759   4.378   2.451  0.00  0.00    -0.464 OA
ATOM     34  C   LIG    1       12.524   5.406   3.065  0.00  0.00    +0.280 C 
ENDBRANCH  31  33
ENDBRANCH  27  31
ENDBRANCH  24  25
ENDBRANCH  23  24
ENDBRANCH  20  23
ENDBRANCH  19  20
ENDBRANCH  18  19
ENDBRANCH   1  18
TORSDOF 14
