REMARK  Name = DB12341
REMARK                            x       y       z     vdW  Elec       q    Type
REMARK                         _______ _______ _______ _____ _____    ______ ____
ROOT
ATOM      1  C   LIG    1        1.581   2.607  -0.561  0.00  0.00    -0.064 A 
ATOM      2  C   LIG    1        1.693   3.501  -1.627  0.00  0.00    +0.005 A 
ATOM      3  C   LIG    1        1.977   4.841  -1.382  0.00  0.00    +0.046 A 
ATOM      4  C   LIG    1        2.150   5.300  -0.075  0.00  0.00    +0.129 A 
ATOM      5  C   LIG    1        2.059   4.392   0.992  0.00  0.00    +0.046 A 
ATOM      6  C   LIG    1        1.777   3.051   0.748  0.00  0.00    +0.005 A 
ENDROOT
BRANCH   1   7
ATOM      7  C   LIG    1        1.277   1.142  -0.830  0.00  0.00    -0.042 C 
BRANCH   7   9
ATOM      8  C   LIG    1       -0.562  -0.597  -1.427  0.00  0.00    -0.037 C 
ATOM      9  N   LIG    1       -0.230   0.843  -0.972  0.00  0.00    +0.387 N 
ATOM     10  H   LIG    1       -0.609   1.479  -1.659  0.00  0.00    -0.080 HD
ATOM     11  C   LIG    1       -1.053   1.058   0.309  0.00  0.00    -0.078 C 
ATOM     12  C   LIG    1       -2.338   0.293   0.026  0.00  0.00    -0.020 C 
ATOM     13  C   LIG    1       -1.891  -0.955  -0.730  0.00  0.00    -0.013 C 
BRANCH   8  17
ATOM     14  C   LIG    1        1.392  -2.517  -5.686  0.00  0.00    +0.044 C 
ATOM     15  C   LIG    1        0.407  -1.593  -4.992  0.00  0.00    -0.050 A 
ATOM     16  C   LIG    1        0.373  -1.518  -3.596  0.00  0.00    +0.005 A 
ATOM     17  C   LIG    1       -0.537  -0.674  -2.952  0.00  0.00    -0.060 A 
ATOM     18  C   LIG    1       -1.427   0.088  -3.720  0.00  0.00    +0.005 A 
ATOM     19  C   LIG    1       -1.406   0.012  -5.115  0.00  0.00    -0.050 A 
ATOM     20  C   LIG    1       -2.364   0.854  -5.938  0.00  0.00    +0.044 C 
ATOM     21  C   LIG    1       -0.485  -0.828  -5.747  0.00  0.00    +0.006 A 
ENDBRANCH   8  17
ENDBRANCH   7   9
ENDBRANCH   1   7
BRANCH   4  22
ATOM     22  O   LIG    1        2.433   6.641   0.090  0.00  0.00    -0.453 OA
BRANCH  22  23
ATOM     23  C   LIG    1        2.229   7.255   1.304  0.00  0.00    +0.163 A 
ATOM     24  C   LIG    1        3.318   7.603   2.105  0.00  0.00    +0.166 A 
ATOM     25  F   LIG    1        4.579   7.340   1.692  0.00  0.00    -0.202 F 
ATOM     26  C   LIG    1        3.109   8.219   3.340  0.00  0.00    +0.055 A 
ATOM     27  C   LIG    1        1.812   8.503   3.796  0.00  0.00    +0.039 A 
ATOM     28  C   LIG    1        0.726   8.150   2.976  0.00  0.00    +0.017 A 
ATOM     29  C   LIG    1        0.933   7.534   1.743  0.00  0.00    +0.050 A 
BRANCH  27  30
ATOM     30  C   LIG    1        1.615   9.170   5.142  0.00  0.00    +0.242 C 
ATOM     31  N   LIG    1        0.371   9.527   5.478  0.00  0.00    -0.325 N 
ATOM     32  H   LIG    1        0.196   9.977   6.364  0.00  0.00    +0.145 HD
ATOM     33  H   LIG    1       -0.398   9.354   4.847  0.00  0.00    +0.145 HD
ATOM     34  O   LIG    1        2.562   9.383   5.899  0.00  0.00    -0.270 OA
ENDBRANCH  27  30
ENDBRANCH  22  23
ENDBRANCH   4  22
TORSDOF 6
