REMARK  Name = DB12884
REMARK                            x       y       z     vdW  Elec       q    Type
REMARK                         _______ _______ _______ _____ _____    ______ ____
ROOT
ATOM      1  O   LIG    1        3.121  -1.908   0.023  0.00  0.00    -0.492 OA
ENDROOT
BRANCH   1   2
ATOM      2  C   LIG    1        3.736  -3.139  -0.100  0.00  0.00    +0.121 A 
ATOM      3  C   LIG    1        5.131  -3.158  -0.018  0.00  0.00    +0.047 A 
ATOM      4  C   LIG    1        5.845  -4.356  -0.125  0.00  0.00    -0.060 A 
ATOM      5  C   LIG    1        5.153  -5.551  -0.334  0.00  0.00    +0.002 A 
ATOM      6  C   LIG    1        3.762  -5.549  -0.416  0.00  0.00    +0.004 A 
ATOM      7  C   LIG    1        3.055  -4.353  -0.299  0.00  0.00    +0.045 A 
BRANCH   4   8
ATOM      8  C   LIG    1        7.364  -4.357  -0.044  0.00  0.00    -0.043 C 
BRANCH   8   9
ATOM      9  N   LIG    1        7.930  -4.859   1.306  0.00  0.00    +0.382 N 
ATOM     10  H   LIG    1        7.522  -5.762   1.507  0.00  0.00    -0.081 HD
ATOM     11  C   LIG    1        7.553  -3.899   2.461  0.00  0.00    -0.078 C 
ATOM     12  C   LIG    1        8.098  -4.465   3.785  0.00  0.00    -0.019 C 
ATOM     13  C   LIG    1        9.615  -4.712   3.726  0.00  0.00    -0.004 C 
ATOM     14  C   LIG    1        9.997  -5.603   2.532  0.00  0.00    -0.019 C 
ATOM     15  C   LIG    1        9.463  -5.045   1.201  0.00  0.00    -0.078 C 
ENDBRANCH   8   9
ENDBRANCH   4   8
ENDBRANCH   1   2
BRANCH   1  16
ATOM     16  C   LIG    1        1.698  -1.829  -0.030  0.00  0.00    +0.230 C 
BRANCH  16  17
ATOM     17  C   LIG    1        1.279  -0.361   0.129  0.00  0.00    +0.060 C 
BRANCH  17  18
ATOM     18  C   LIG    1       -0.246  -0.172   0.130  0.00  0.00    +0.107 C 
BRANCH  18  19
ATOM     19  N   LIG    1       -0.642   1.219   0.284  0.00  0.00    -0.314 N 
ATOM     20  H   LIG    1        0.022   1.751   0.828  0.00  0.00    +0.149 HD
BRANCH  19  26
ATOM     21  C   LIG    1       -1.411   4.170   0.579  0.00  0.00    +0.176 C 
ATOM     22  N   LIG    1       -2.242   3.027   0.230  0.00  0.00    -0.236 N 
ATOM     23  N   LIG    1       -3.558   3.176   0.064  0.00  0.00    -0.151 NA
ATOM     24  C   LIG    1       -3.945   1.938  -0.176  0.00  0.00    +0.178 A 
ATOM     25  N   LIG    1       -2.997   1.009  -0.155  0.00  0.00    -0.196 NA
ATOM     26  C   LIG    1       -1.917   1.700   0.118  0.00  0.00    +0.214 A 
BRANCH  24  27
ATOM     27  C   LIG    1       -5.396   1.591  -0.434  0.00  0.00    +0.233 C 
BRANCH  27  28
ATOM     28  O   LIG    1       -6.083   1.469   0.795  0.00  0.00    -0.387 OA
ATOM     29  H   LIG    1       -6.999   1.247   0.612  0.00  0.00    +0.210 HD
ENDBRANCH  27  28
ENDBRANCH  24  27
ENDBRANCH  19  26
ENDBRANCH  18  19
ENDBRANCH  17  18
ENDBRANCH  16  17
ENDBRANCH   1  16
TORSDOF 10
