REMARK  Name = DB12465
REMARK                            x       y       z     vdW  Elec       q    Type
REMARK                         _______ _______ _______ _____ _____    ______ ____
ROOT
ATOM      1  C   LIG    1       -2.038   0.913  -0.323  0.00  0.00    +0.027 C 
ATOM      2  C   LIG    1       -1.881   0.538   1.166  0.00  0.00    +0.063 C 
ATOM      3  C   LIG    1       -0.829  -0.591   1.231  0.00  0.00    +0.027 C 
ATOM      4  C   LIG    1        0.514  -0.079   0.673  0.00  0.00    +0.085 C 
ATOM      5  N   LIG    1        0.376   0.394  -0.718  0.00  0.00    -0.301 NA
ATOM      6  C   LIG    1       -0.686   1.402  -0.886  0.00  0.00    +0.085 C 
ENDROOT
BRANCH   2   7
ATOM      7  C   LIG    1       -3.249   0.098   1.748  0.00  0.00    +0.166 C 
ATOM      8  O   LIG    1       -3.532  -1.103   1.782  0.00  0.00    -0.292 OA
BRANCH   7   9
ATOM      9  C   LIG    1       -4.197   1.160   2.235  0.00  0.00    +0.018 A 
ATOM     10  C   LIG    1       -5.421   0.772   2.801  0.00  0.00    +0.014 A 
ATOM     11  C   LIG    1       -6.324   1.726   3.261  0.00  0.00    +0.039 A 
ATOM     12  C   LIG    1       -6.013   3.078   3.157  0.00  0.00    +0.123 A 
ATOM     13  F   LIG    1       -6.891   4.006   3.603  0.00  0.00    -0.205 F 
ATOM     14  C   LIG    1       -4.806   3.483   2.595  0.00  0.00    +0.039 A 
ATOM     15  C   LIG    1       -3.902   2.529   2.135  0.00  0.00    +0.014 A 
ENDBRANCH   7   9
ENDBRANCH   2   7
BRANCH   5  16
ATOM     16  C   LIG    1        1.652   0.843  -1.290  0.00  0.00    +0.106 C 
BRANCH  16  17
ATOM     17  C   LIG    1        2.395  -0.267  -2.078  0.00  0.00    +0.145 C 
BRANCH  17  18
ATOM     18  N   LIG    1        2.709  -1.512  -1.327  0.00  0.00    -0.259 N 
ATOM     19  C   LIG    1        1.863  -2.586  -1.559  0.00  0.00    +0.330 A 
ATOM     20  O   LIG    1        0.893  -2.602  -2.319  0.00  0.00    -0.246 OA
ATOM     21  N   LIG    1        2.166  -3.700  -0.848  0.00  0.00    -0.307 N 
ATOM     22  H   LIG    1        1.554  -4.488  -1.005  0.00  0.00    +0.170 HD
ATOM     23  C   LIG    1        3.214  -3.835   0.059  0.00  0.00    +0.056 A 
ATOM     24  C   LIG    1        3.428  -5.032   0.746  0.00  0.00    +0.026 A 
ATOM     25  C   LIG    1        4.489  -5.128   1.648  0.00  0.00    +0.002 A 
ATOM     26  C   LIG    1        5.330  -4.034   1.863  0.00  0.00    +0.001 A 
ATOM     27  C   LIG    1        5.116  -2.837   1.176  0.00  0.00    +0.015 A 
ATOM     28  C   LIG    1        4.053  -2.737   0.271  0.00  0.00    +0.063 A 
ATOM     29  C   LIG    1        3.802  -1.443  -0.481  0.00  0.00    +0.264 A 
ATOM     30  O   LIG    1        4.503  -0.436  -0.339  0.00  0.00    -0.267 OA
ENDBRANCH  17  18
ENDBRANCH  16  17
ENDBRANCH   5  16
TORSDOF 5
