REMARK  Name = DB12615
REMARK                            x       y       z     vdW  Elec       q    Type
REMARK                         _______ _______ _______ _____ _____    ______ ____
ROOT
ATOM      1  C   LIG    1       -2.290  -0.327  -1.361  0.00  0.00    +0.173 C 
ATOM      2  C   LIG    1       -0.735  -0.264  -1.337  0.00  0.00    +0.175 C 
ATOM      3  C   LIG    1       -0.170   0.107   0.061  0.00  0.00    +0.170 C 
ATOM      4  C   LIG    1       -0.768  -0.755   1.197  0.00  0.00    +0.084 C 
ATOM      5  C   LIG    1       -2.308  -0.759   1.152  0.00  0.00    +0.046 C 
ATOM      6  C   LIG    1       -2.856  -1.214  -0.216  0.00  0.00    +0.106 C 
ENDROOT
BRANCH   6   7
ATOM      7  N   LIG    1       -4.319  -1.315  -0.187  0.00  0.00    -0.308 N 
ATOM      8  H   LIG    1       -4.800  -0.590   0.327  0.00  0.00    +0.149 HD
ATOM      9  C   LIG    1       -5.068  -2.225  -0.837  0.00  0.00    +0.242 C 
ATOM     10  O   LIG    1       -4.586  -3.115  -1.542  0.00  0.00    -0.273 OA
BRANCH   9  11
ATOM     11  C   LIG    1       -6.595  -2.095  -0.647  0.00  0.00    +0.201 C 
BRANCH  11  12
ATOM     12  O   LIG    1       -7.250  -2.526  -1.828  0.00  0.00    -0.383 OA
ATOM     13  H   LIG    1       -6.927  -1.999  -2.563  0.00  0.00    +0.210 HD
ENDBRANCH  11  12
BRANCH  11  14
ATOM     14  C   LIG    1       -7.134  -2.946   0.534  0.00  0.00    +0.056 C 
BRANCH  14  15
ATOM     15  C   LIG    1       -6.608  -2.575   1.938  0.00  0.00    +0.080 C 
BRANCH  15  16
ATOM     16  N   LIG    1       -6.953  -1.212   2.297  0.00  0.00    -0.330 NA
ATOM     17  H   LIG    1       -6.628  -1.016   3.234  0.00  0.00    +0.118 HD
ATOM     18  H   LIG    1       -7.958  -1.112   2.318  0.00  0.00    +0.118 HD
ENDBRANCH  15  16
ENDBRANCH  14  15
ENDBRANCH  11  14
ENDBRANCH   9  11
ENDBRANCH   6   7
BRANCH   4  19
ATOM     19  N   LIG    1       -0.270  -0.389   2.512  0.00  0.00    -0.325 NA
ATOM     20  H   LIG    1        0.740  -0.428   2.515  0.00  0.00    +0.119 HD
ATOM     21  H   LIG    1       -0.591  -1.055   3.200  0.00  0.00    +0.119 HD
ENDBRANCH   4  19
BRANCH   2  22
ATOM     22  O   LIG    1       -0.245   0.676  -2.274  0.00  0.00    -0.387 OA
ATOM     23  H   LIG    1       -0.758   0.592  -3.082  0.00  0.00    +0.210 HD
ENDBRANCH   2  22
BRANCH   1  24
ATOM     24  O   LIG    1       -2.803  -0.867  -2.585  0.00  0.00    -0.341 OA
BRANCH  24  29
ATOM     25  C   LIG    1       -2.031  -3.242  -6.424  0.00  0.00    +0.045 C 
ATOM     26  C   LIG    1       -2.504  -1.856  -5.931  0.00  0.00    +0.104 C 
ATOM     27  C   LIG    1       -3.837  -1.935  -5.130  0.00  0.00    +0.121 C 
ATOM     28  C   LIG    1       -4.158  -0.538  -4.525  0.00  0.00    +0.190 C 
ATOM     29  C   LIG    1       -2.970  -0.019  -3.692  0.00  0.00    +0.281 C 
ATOM     30  O   LIG    1       -1.803   0.042  -4.471  0.00  0.00    -0.346 OA
ATOM     31  C   LIG    1       -1.411  -1.210  -5.048  0.00  0.00    +0.199 C 
BRANCH  27  32
ATOM     32  N   LIG    1       -4.933  -2.508  -5.924  0.00  0.00    -0.311 NA
ATOM     33  H   LIG    1       -5.545  -1.747  -6.184  0.00  0.00    +0.122 HD
ATOM     34  C   LIG    1       -5.753  -3.428  -5.147  0.00  0.00    +0.101 C 
ENDBRANCH  27  32
BRANCH  26  35
ATOM     35  O   LIG    1       -2.651  -1.049  -7.091  0.00  0.00    -0.385 OA
ATOM     36  H   LIG    1       -3.214  -1.517  -7.712  0.00  0.00    +0.210 HD
ENDBRANCH  26  35
BRANCH  28  37
ATOM     37  O   LIG    1       -5.341  -0.513  -3.745  0.00  0.00    -0.385 OA
ATOM     38  H   LIG    1       -5.548   0.401  -3.537  0.00  0.00    +0.210 HD
ENDBRANCH  28  37
ENDBRANCH  24  29
ENDBRANCH   1  24
BRANCH   3  39
ATOM     39  O   LIG    1        1.250  -0.087   0.071  0.00  0.00    -0.333 OA
BRANCH  39  40
ATOM     40  C   LIG    1        2.042   1.065   0.080  0.00  0.00    +0.324 C 
ATOM     41  O   LIG    1        1.840   1.798   1.277  0.00  0.00    -0.465 OA
ATOM     42  C   LIG    1        2.799   2.725   1.578  0.00  0.00    +0.111 C 
ATOM     43  C   LIG    1        3.999   2.826   0.974  0.00  0.00    +0.017 C 
ATOM     44  C   LIG    1        4.423   1.864  -0.119  0.00  0.00    +0.055 C 
ATOM     45  C   LIG    1        3.512   0.613  -0.083  0.00  0.00    +0.124 C 
BRANCH  45  46
ATOM     46  N   LIG    1        3.942  -0.372   0.898  0.00  0.00    -0.322 NA
ATOM     47  H   LIG    1        3.347  -1.187   0.840  0.00  0.00    +0.119 HD
ATOM     48  H   LIG    1        3.829   0.007   1.827  0.00  0.00    +0.119 HD
ENDBRANCH  45  46
BRANCH  42  49
ATOM     49  C   LIG    1        2.329   3.595   2.734  0.00  0.00    +0.155 C 
BRANCH  49  50
ATOM     50  N   LIG    1        1.436   4.693   2.378  0.00  0.00    -0.307 NA
ATOM     51  H   LIG    1        1.876   5.320   1.719  0.00  0.00    +0.122 HD
BRANCH  50  52
ATOM     52  C   LIG    1        0.119   4.259   1.921  0.00  0.00    +0.109 C 
BRANCH  52  53
ATOM     53  C   LIG    1       -0.793   5.460   1.606  0.00  0.00    +0.171 C 
BRANCH  53  54
ATOM     54  O   LIG    1       -1.106   6.194   2.773  0.00  0.00    -0.394 OA
ATOM     55  H   LIG    1       -1.652   6.945   2.527  0.00  0.00    +0.209 HD
ENDBRANCH  53  54
ENDBRANCH  52  53
ENDBRANCH  50  52
ENDBRANCH  49  50
ENDBRANCH  42  49
ENDBRANCH  39  40
ENDBRANCH   3  39
TORSDOF 21
