REMARK  Name = DB12804
REMARK                            x       y       z     vdW  Elec       q    Type
REMARK                         _______ _______ _______ _____ _____    ______ ____
ROOT
ATOM      1  C   LIG    1       -8.745  -0.749   0.000  0.00  0.00    +0.001 A 
ATOM      2  C   LIG    1       -7.438  -0.253   0.000  0.00  0.00    +0.017 A 
ATOM      3  C   LIG    1       -6.364  -1.147   0.000  0.00  0.00    +0.080 A 
ATOM      4  C   LIG    1       -4.928  -0.980   0.000  0.00  0.00    +0.329 C 
ATOM      5  N   LIG    1       -4.372  -2.239   0.000  0.00  0.00    -0.148 N 
ATOM      6  C   LIG    1       -5.297  -3.224   0.000  0.00  0.00    +0.336 C 
ATOM      7  O   LIG    1       -5.098  -4.439   0.000  0.00  0.00    -0.242 OA
ATOM      8  C   LIG    1       -2.914  -2.511   0.000  0.00  0.00    +0.275 C 
ATOM      9  C   LIG    1       -2.091  -1.222   0.000  0.00  0.00    +0.045 A 
ATOM     10  C   LIG    1       -2.785   0.000   0.000  0.00  0.00    +0.183 A 
ATOM     11  C   LIG    1       -2.086   1.209   0.000  0.00  0.00    +0.057 A 
ATOM     12  C   LIG    1       -0.691   1.207   0.000  0.00  0.00    +0.027 A 
ATOM     13  C   LIG    1        0.007  -0.002   0.000  0.00  0.00    +0.025 A 
ATOM     14  C   LIG    1       -0.693  -1.210   0.000  0.00  0.00    +0.034 A 
ATOM     15  N   LIG    1       -4.189   0.069   0.000  0.00  0.00    -0.041 NA
ATOM     16  C   LIG    1       -6.599  -2.507   0.000  0.00  0.00    +0.077 A 
ATOM     17  C   LIG    1       -7.898  -3.019   0.000  0.00  0.00    +0.016 A 
ATOM     18  C   LIG    1       -8.975  -2.128   0.000  0.00  0.00    +0.001 A 
ENDROOT
BRANCH  13  19
ATOM     19  N   LIG    1        1.401  -0.002   0.000  0.00  0.00    -0.358 N 
ATOM     20  H   LIG    1        1.898   0.877   0.000  0.00  0.00    +0.142 HD
ATOM     21  H   LIG    1        1.899  -0.881   0.000  0.00  0.00    +0.142 HD
ENDBRANCH  13  19
TORSDOF 1
