REMARK  Name = DB12843
REMARK                            x       y       z     vdW  Elec       q    Type
REMARK                         _______ _______ _______ _____ _____    ______ ____
ROOT
ATOM      1  C   LIG    1        1.572   0.028   0.063  0.00  0.00    +0.122 C 
ATOM      2  C   LIG    1        1.957  -0.743  -1.213  0.00  0.00    +0.035 C 
ATOM      3  C   LIG    1        1.492  -2.231  -1.184  0.00  0.00    -0.002 C 
ATOM      4  C   LIG    1        1.852  -2.974  -2.495  0.00  0.00    +0.004 C 
ATOM      5  C   LIG    1        3.364  -3.223  -2.626  0.00  0.00    +0.007 C 
ATOM      6  C   LIG    1        3.956  -3.997  -1.409  0.00  0.00    +0.025 C 
ATOM      7  C   LIG    1        5.503  -4.253  -1.579  0.00  0.00    +0.079 C 
ATOM      8  C   LIG    1        6.376  -3.011  -1.902  0.00  0.00    +0.080 C 
ATOM      9  C   LIG    1        7.740  -3.213  -1.214  0.00  0.00    +0.187 C 
ATOM     10  C   LIG    1        7.707  -4.639  -0.587  0.00  0.00    +0.068 C 
ATOM     11  C   LIG    1        6.183  -4.900  -0.318  0.00  0.00    +0.007 C 
ATOM     12  C   LIG    1        5.824  -6.404  -0.111  0.00  0.00    +0.015 C 
ATOM     13  C   LIG    1        5.759  -4.113   0.965  0.00  0.00    +0.010 C 
ATOM     14  C   LIG    1        4.238  -3.976   1.119  0.00  0.00    +0.005 C 
ATOM     15  C   LIG    1        3.602  -3.234  -0.086  0.00  0.00    +0.001 C 
ATOM     16  C   LIG    1        2.042  -3.001   0.077  0.00  0.00    -0.026 C 
ATOM     17  C   LIG    1        1.261  -4.345   0.211  0.00  0.00    +0.012 C 
ATOM     18  C   LIG    1        1.671  -2.162   1.346  0.00  0.00    +0.010 C 
ATOM     19  C   LIG    1        2.150  -0.697   1.296  0.00  0.00    +0.032 C 
ENDROOT
BRANCH  10  20
ATOM     20  C   LIG    1        8.420  -5.733  -1.399  0.00  0.00    -0.019 C 
ATOM     21  C   LIG    1        9.090  -6.902  -0.725  0.00  0.00    +0.264 C 
ATOM     22  O   LIG    1        9.640  -7.659  -1.781  0.00  0.00    -0.457 OA
ATOM     23  C   LIG    1        9.386  -7.082  -2.959  0.00  0.00    +0.332 C 
ATOM     24  O   LIG    1        9.750  -7.522  -4.048  0.00  0.00    -0.246 OA
ATOM     25  C   LIG    1        8.630  -5.877  -2.716  0.00  0.00    +0.094 C 
ENDBRANCH  10  20
BRANCH   7  26
ATOM     26  O   LIG    1        5.571  -5.156  -2.678  0.00  0.00    -0.388 OA
ATOM     27  H   LIG    1        5.096  -5.957  -2.443  0.00  0.00    +0.210 HD
ENDBRANCH   7  26
BRANCH   1  28
ATOM     28  O   LIG    1        0.147   0.083   0.151  0.00  0.00    -0.348 OA
BRANCH  28  32
ATOM     29  C   LIG    1       -0.370   2.404   3.635  0.00  0.00    +0.041 C 
ATOM     30  C   LIG    1       -0.765   1.500   2.455  0.00  0.00    +0.149 C 
ATOM     31  O   LIG    1       -0.223   2.093   1.266  0.00  0.00    -0.346 OA
ATOM     32  C   LIG    1       -0.437   1.351   0.091  0.00  0.00    +0.253 C 
ATOM     33  C   LIG    1       -1.937   1.182  -0.154  0.00  0.00    +0.095 C 
ATOM     34  C   LIG    1       -2.644   0.515   1.041  0.00  0.00    +0.154 C 
ATOM     35  C   LIG    1       -2.296   1.269   2.349  0.00  0.00    +0.172 C 
BRANCH  34  36
ATOM     36  O   LIG    1       -4.036   0.512   0.719  0.00  0.00    -0.377 OA
ATOM     37  C   LIG    1       -4.860  -0.387   1.450  0.00  0.00    +0.194 C 
ENDBRANCH  34  36
BRANCH  35  38
ATOM     38  O   LIG    1       -2.748   0.566   3.493  0.00  0.00    -0.387 OA
ATOM     39  H   LIG    1       -2.698   1.152   4.252  0.00  0.00    +0.210 HD
ENDBRANCH  35  38
ENDBRANCH  28  32
ENDBRANCH   1  28
BRANCH   9  40
ATOM     40  O   LIG    1        8.804  -2.936  -2.128  0.00  0.00    -0.461 OA
BRANCH  40  41
ATOM     41  C   LIG    1       10.082  -2.795  -1.708  0.00  0.00    +0.304 C 
ATOM     42  C   LIG    1       11.041  -2.531  -2.861  0.00  0.00    +0.136 C 
ATOM     43  O   LIG    1       10.479  -2.870  -0.544  0.00  0.00    -0.251 OA
ENDBRANCH  40  41
ENDBRANCH   9  40
TORSDOF 8
