REMARK  Name = DB12380
REMARK                            x       y       z     vdW  Elec       q    Type
REMARK                         _______ _______ _______ _____ _____    ______ ____
ROOT
ATOM      1  C   LIG    1        2.572   0.761  -1.125  0.00  0.00    +0.237 C 
ATOM      2  N   LIG    1        3.333   1.852  -0.857  0.00  0.00    -0.288 N 
ATOM      3  C   LIG    1        4.070   2.580  -1.907  0.00  0.00    +0.162 C 
ATOM      4  C   LIG    1        4.545   3.858  -1.195  0.00  0.00    +0.033 C 
ATOM      5  C   LIG    1        4.678   3.464   0.267  0.00  0.00    +0.021 C 
ATOM      6  C   LIG    1        3.545   2.462   0.459  0.00  0.00    +0.109 C 
ATOM      7  O   LIG    1        2.438   0.284  -2.253  0.00  0.00    -0.274 OA
ENDROOT
BRANCH   3   8
ATOM      8  C   LIG    1        5.233   1.755  -2.493  0.00  0.00    +0.238 C 
ATOM      9  N   LIG    1        5.121   1.468  -3.808  0.00  0.00    -0.276 N 
ATOM     10  H   LIG    1        4.308   1.825  -4.289  0.00  0.00    +0.155 HD
ATOM     11  O   LIG    1        6.153   1.405  -1.749  0.00  0.00    -0.273 OA
BRANCH   9  12
ATOM     12  C   LIG    1        5.998   0.722  -4.589  0.00  0.00    +0.120 A 
ATOM     13  S   LIG    1        7.405  -0.112  -3.963  0.00  0.00    +0.052 S 
ATOM     14  N   LIG    1        7.803  -0.758  -5.492  0.00  0.00    -0.108 NA
ATOM     15  N   LIG    1        6.871  -0.318  -6.412  0.00  0.00    -0.139 NA
ATOM     16  C   LIG    1        5.907   0.469  -5.963  0.00  0.00    +0.123 A 
BRANCH  16  17
ATOM     17  C   LIG    1        4.868   0.979  -6.917  0.00  0.00    +0.005 A 
ATOM     18  C   LIG    1        4.382   2.287  -6.800  0.00  0.00    +0.010 A 
ATOM     19  C   LIG    1        3.419   2.761  -7.687  0.00  0.00    +0.001 A 
ATOM     20  C   LIG    1        2.941   1.930  -8.696  0.00  0.00    +0.000 A 
ATOM     21  C   LIG    1        3.419   0.629  -8.828  0.00  0.00    +0.001 A 
ATOM     22  C   LIG    1        4.382   0.155  -7.940  0.00  0.00    +0.010 A 
ENDBRANCH  16  17
ENDBRANCH   9  12
ENDBRANCH   3   8
BRANCH   1  23
ATOM     23  C   LIG    1        1.806   0.087   0.044  0.00  0.00    +0.162 C 
BRANCH  23  24
ATOM     24  C   LIG    1        2.347  -1.349   0.335  0.00  0.00    +0.018 C 
ATOM     25  C   LIG    1        3.830  -1.374   0.788  0.00  0.00    +0.006 C 
ATOM     26  C   LIG    1        4.350  -2.827   0.783  0.00  0.00    +0.000 C 
ATOM     27  C   LIG    1        3.494  -3.726   1.712  0.00  0.00    +0.000 C 
ATOM     28  C   LIG    1        1.969  -3.571   1.479  0.00  0.00    +0.000 C 
ATOM     29  C   LIG    1        1.562  -2.083   1.452  0.00  0.00    +0.006 C 
ENDBRANCH  23  24
BRANCH  23  31
ATOM     30  C   LIG    1       -0.441   1.128  -0.285  0.00  0.00    +0.199 C 
ATOM     31  N   LIG    1        0.378   0.061  -0.292  0.00  0.00    -0.305 N 
ATOM     32  H   LIG    1        0.018  -0.837  -0.581  0.00  0.00    +0.149 HD
ATOM     33  O   LIG    1       -0.083   2.264   0.039  0.00  0.00    -0.278 OA
BRANCH  30  35
ATOM     34  C   LIG    1       -2.026   1.014  -2.274  0.00  0.00    -0.004 C 
ATOM     35  C   LIG    1       -1.892   0.841  -0.749  0.00  0.00    +0.012 C 
BRANCH  35  36
ATOM     36  N   LIG    1       -2.817   1.801  -0.037  0.00  0.00    +0.385 N 
ATOM     37  H   LIG    1       -3.703   1.755  -0.520  0.00  0.00    -0.085 HD
ATOM     38  H   LIG    1       -2.441   2.731  -0.163  0.00  0.00    -0.085 HD
ATOM     39  C   LIG    1       -3.068   1.520   1.455  0.00  0.00    -0.099 C 
ENDBRANCH  35  36
ENDBRANCH  30  35
ENDBRANCH  23  31
ENDBRANCH   1  23
TORSDOF 8
