REMARK  Name = DB12414
REMARK                            x       y       z     vdW  Elec       q    Type
REMARK                         _______ _______ _______ _____ _____    ______ ____
ROOT
ATOM      1  C   LIG    1        1.740   0.193  -0.778  0.00  0.00    -0.044 A 
ATOM      2  C   LIG    1        2.349   1.284  -1.405  0.00  0.00    +0.006 A 
ATOM      3  C   LIG    1        3.733   1.435  -1.366  0.00  0.00    +0.023 A 
ATOM      4  C   LIG    1        4.524   0.487  -0.698  0.00  0.00    +0.034 A 
ATOM      5  C   LIG    1        3.912  -0.596  -0.064  0.00  0.00    +0.023 A 
ATOM      6  C   LIG    1        2.530  -0.746  -0.107  0.00  0.00    +0.006 A 
ENDROOT
BRANCH   1  10
ATOM      7  N   LIG    1       -2.267  -1.475  -0.150  0.00  0.00    -0.286 NA
ATOM      8  C   LIG    1       -1.751  -1.439  -1.534  0.00  0.00    +0.086 C 
ATOM      9  C   LIG    1       -0.222  -1.241  -1.581  0.00  0.00    +0.023 C 
ATOM     10  C   LIG    1        0.219   0.026  -0.823  0.00  0.00    +0.021 C 
ATOM     11  C   LIG    1       -0.436   0.082   0.571  0.00  0.00    +0.023 C 
ATOM     12  C   LIG    1       -1.954  -0.193   0.512  0.00  0.00    +0.086 C 
BRANCH   7  13
ATOM     13  C   LIG    1       -3.715  -1.803  -0.090  0.00  0.00    +0.197 C 
BRANCH  13  14
ATOM     14  C   LIG    1       -4.275  -1.791   1.344  0.00  0.00    -0.020 A 
ATOM     15  C   LIG    1       -3.739  -2.616   2.343  0.00  0.00    +0.006 A 
ATOM     16  C   LIG    1       -4.258  -2.581   3.634  0.00  0.00    +0.000 A 
ATOM     17  C   LIG    1       -5.312  -1.719   3.929  0.00  0.00    +0.000 A 
ATOM     18  C   LIG    1       -5.848  -0.891   2.946  0.00  0.00    +0.000 A 
ATOM     19  C   LIG    1       -5.329  -0.925   1.655  0.00  0.00    +0.006 A 
ENDBRANCH  13  14
BRANCH  13  20
ATOM     20  C   LIG    1       -4.089  -3.184  -0.690  0.00  0.00    +0.329 C 
ATOM     21  O   LIG    1       -3.319  -4.148  -0.657  0.00  0.00    -0.249 OA
BRANCH  20  23
ATOM     22  C   LIG    1       -5.843  -4.352  -1.851  0.00  0.00    +0.280 C 
ATOM     23  O   LIG    1       -5.320  -3.179  -1.246  0.00  0.00    -0.467 OA
ENDBRANCH  20  23
ENDBRANCH  13  20
ENDBRANCH   7  13
ENDBRANCH   1  10
BRANCH   4  24
ATOM     24  N   LIG    1        5.923   0.555  -0.579  0.00  0.00    -0.281 N 
ATOM     25  H   LIG    1        6.314  -0.085   0.097  0.00  0.00    +0.155 HD
ATOM     26  C   LIG    1        6.806   1.354  -1.218  0.00  0.00    +0.249 C 
ATOM     27  O   LIG    1        6.537   2.130  -2.136  0.00  0.00    -0.270 OA
BRANCH  26  28
ATOM     28  C   LIG    1        8.233   1.207  -0.747  0.00  0.00    +0.045 A 
ATOM     29  C   LIG    1        8.609   1.318   0.617  0.00  0.00    -0.006 A 
ATOM     30  C   LIG    1        9.953   1.110   0.961  0.00  0.00    +0.009 A 
ATOM     31  C   LIG    1       10.912   0.823  -0.007  0.00  0.00    +0.001 A 
ATOM     32  C   LIG    1       10.543   0.738  -1.344  0.00  0.00    +0.001 A 
ATOM     33  C   LIG    1        9.213   0.930  -1.711  0.00  0.00    +0.013 A 
BRANCH  29  34
ATOM     34  C   LIG    1        7.654   1.660   1.714  0.00  0.00    -0.017 A 
ATOM     35  C   LIG    1        7.492   0.797   2.803  0.00  0.00    +0.009 A 
ATOM     36  C   LIG    1        6.595   1.103   3.822  0.00  0.00    +0.013 A 
ATOM     37  C   LIG    1        5.847   2.284   3.768  0.00  0.00    +0.055 A 
ATOM     38  C   LIG    1        6.013   3.154   2.687  0.00  0.00    +0.013 A 
ATOM     39  C   LIG    1        6.912   2.846   1.671  0.00  0.00    +0.009 A 
BRANCH  37  40
ATOM     40  C   LIG    1        4.853   2.640   4.873  0.00  0.00    +0.417 C 
ATOM     41  F   LIG    1        3.612   2.549   4.393  0.00  0.00    -0.166 F 
ATOM     42  F   LIG    1        5.059   3.889   5.293  0.00  0.00    -0.166 F 
ATOM     43  F   LIG    1        4.951   1.828   5.927  0.00  0.00    -0.166 F 
ENDBRANCH  37  40
ENDBRANCH  29  34
ENDBRANCH  26  28
ENDBRANCH   4  24
TORSDOF 9
