REMARK  Name = DB12750
REMARK                            x       y       z     vdW  Elec       q    Type
REMARK                         _______ _______ _______ _____ _____    ______ ____
ROOT
ATOM      1  C   LIG    1        2.063  -1.516  -0.059  0.00  0.00    +0.196 C 
ENDROOT
BRANCH   1   2
ATOM      2  N   LIG    1        3.523  -1.553  -0.067  0.00  0.00    -0.274 N 
ATOM      3  H   LIG    1        3.967  -1.218   0.776  0.00  0.00    +0.258 HD
BRANCH   2   4
ATOM      4  C   LIG    1        4.269  -1.481  -1.278  0.00  0.00    +0.411 C 
ATOM      5  N   LIG    1        3.731  -1.512  -2.444  0.00  0.00    +0.094 NA
BRANCH   4   6
ATOM      6  N   LIG    1        5.650  -1.354  -0.978  0.00  0.00    -0.287 N 
ATOM      7  H   LIG    1        6.351  -1.392  -1.703  0.00  0.00    +0.255 HD
ATOM      8  H   LIG    1        6.003  -1.509  -0.044  0.00  0.00    +0.255 HD
ENDBRANCH   4   6
BRANCH   5   9
ATOM      9  N   LIG    1        4.698  -1.462  -3.579  0.00  0.00    +0.176 N 
ATOM     10  O   LIG    1        4.525  -0.545  -4.375  0.00  0.00    -0.095 OA
BRANCH   9  11
ATOM     11  O   LIG    1        5.515  -2.376  -3.688  0.00  0.00    -0.370 OA
ATOM     12  H   LIG    1        5.573  -3.034  -3.023  0.00  0.00    +0.332 HD
ENDBRANCH   9  11
ENDBRANCH   5   9
ENDBRANCH   2   4
ENDBRANCH   1   2
BRANCH   1  13
ATOM     13  C   LIG    1        1.538  -0.068  -0.101  0.00  0.00    +0.039 C 
BRANCH  13  14
ATOM     14  C   LIG    1       -0.002   0.000  -0.044  0.00  0.00    +0.033 C 
BRANCH  14  15
ATOM     15  C   LIG    1       -0.575   1.440  -0.006  0.00  0.00    +0.161 C 
BRANCH  15  16
ATOM     16  N   LIG    1       -2.017   1.442   0.285  0.00  0.00    -0.318 NA
ATOM     17  H   LIG    1       -2.359   2.384   0.411  0.00  0.00    +0.119 HD
ATOM     18  H   LIG    1       -2.214   0.945   1.142  0.00  0.00    +0.119 HD
ENDBRANCH  15  16
BRANCH  15  19
ATOM     19  C   LIG    1       -0.359   2.171  -1.319  0.00  0.00    +0.324 C 
ATOM     20  O   LIG    1       -0.709   1.718  -2.413  0.00  0.00    -0.249 OA
BRANCH  19  21
ATOM     21  O   LIG    1        0.271   3.350  -1.127  0.00  0.00    -0.467 OA
ATOM     22  C   LIG    1        0.579   4.193  -2.227  0.00  0.00    +0.280 C 
ENDBRANCH  19  21
ENDBRANCH  15  19
ENDBRANCH  14  15
ENDBRANCH  13  14
ENDBRANCH   1  13
TORSDOF 11
