REMARK  Name = DB12272
REMARK                            x       y       z     vdW  Elec       q    Type
REMARK                         _______ _______ _______ _____ _____    ______ ____
ROOT
ATOM      1  C   LIG    1       -2.927  -0.129   0.140  0.00  0.00    +0.039 A 
ATOM      2  C   LIG    1       -2.421  -1.438   0.069  0.00  0.00    +0.041 A 
ATOM      3  C   LIG    1       -1.041  -1.718   0.097  0.00  0.00    +0.091 A 
ATOM      4  C   LIG    1       -0.161  -0.625   0.199  0.00  0.00    +0.151 A 
ATOM      5  C   LIG    1       -0.648   0.683   0.259  0.00  0.00    +0.049 A 
ATOM      6  C   LIG    1       -2.015   0.929   0.230  0.00  0.00    +0.017 A 
ENDROOT
BRANCH   1   9
ATOM      7  N   LIG    1       -5.231  -0.903   0.310  0.00  0.00    -0.307 N 
ATOM      8  H   LIG    1       -4.786  -1.802   0.421  0.00  0.00    +0.150 HD
ATOM      9  C   LIG    1       -4.416   0.157   0.121  0.00  0.00    +0.245 C 
ATOM     10  O   LIG    1       -4.833   1.306  -0.035  0.00  0.00    -0.270 OA
BRANCH   7  12
ATOM     11  C   LIG    1       -7.121  -2.398   0.624  0.00  0.00    +0.031 C 
ATOM     12  C   LIG    1       -6.702  -0.934   0.373  0.00  0.00    +0.026 C 
ATOM     13  C   LIG    1       -7.235  -0.068   1.541  0.00  0.00    +0.031 C 
ATOM     14  C   LIG    1       -7.333  -0.467  -0.962  0.00  0.00    +0.031 C 
ENDBRANCH   7  12
ENDBRANCH   1   9
BRANCH   3  15
ATOM     15  N   LIG    1       -0.515  -2.990   0.037  0.00  0.00    -0.213 N 
ATOM     16  H   LIG    1        0.464  -3.087   0.028  0.00  0.00    +0.174 HD
BRANCH  15  17
ATOM     17  S   LIG    1       -1.389  -4.292  -0.018  0.00  0.00    +0.074 S 
ATOM     18  O   LIG    1       -2.061  -4.509  -1.305  0.00  0.00    -0.150 OA
ATOM     19  O   LIG    1       -2.190  -4.505   1.194  0.00  0.00    -0.150 OA
BRANCH  17  20
ATOM     20  C   LIG    1       -0.078  -5.534   0.029  0.00  0.00    +0.127 A 
ATOM     21  C   LIG    1        0.853  -5.681  -1.018  0.00  0.00    +0.068 A 
ATOM     22 CL   LIG    1        0.820  -4.690  -2.438  0.00  0.00    -0.082 Cl
ATOM     23  C   LIG    1        1.850  -6.655  -0.931  0.00  0.00    +0.026 A 
ATOM     24  C   LIG    1        1.932  -7.494   0.181  0.00  0.00    -0.043 A 
ATOM     25  C   LIG    1        1.011  -7.351   1.220  0.00  0.00    +0.006 A 
ATOM     26  C   LIG    1        0.014  -6.380   1.143  0.00  0.00    +0.030 A 
BRANCH  24  27
ATOM     27  C   LIG    1        3.023  -8.546   0.267  0.00  0.00    +0.019 C 
ATOM     28  C   LIG    1        2.715 -10.002   0.531  0.00  0.00    +0.009 C 
ATOM     29  C   LIG    1        3.236  -9.572  -0.821  0.00  0.00    +0.009 C 
ENDBRANCH  24  27
ENDBRANCH  17  20
ENDBRANCH  15  17
ENDBRANCH   3  15
BRANCH   4  30
ATOM     30  O   LIG    1        1.204  -0.822   0.225  0.00  0.00    -0.453 OA
BRANCH  30  31
ATOM     31  C   LIG    1        1.896  -0.577   1.391  0.00  0.00    +0.149 A 
ATOM     32  C   LIG    1        3.105   0.127   1.334  0.00  0.00    +0.084 A 
ATOM     33 CL   LIG    1        3.718   0.700  -0.177  0.00  0.00    -0.080 Cl
ATOM     34  C   LIG    1        3.826   0.379   2.502  0.00  0.00    +0.030 A 
ATOM     35  C   LIG    1        3.354  -0.069   3.740  0.00  0.00    +0.000 A 
ATOM     36  C   LIG    1        2.148  -0.777   3.798  0.00  0.00    +0.131 A 
ATOM     37  F   LIG    1        1.673  -1.227   4.983  0.00  0.00    -0.205 F 
ATOM     38  C   LIG    1        1.427  -1.029   2.632  0.00  0.00    +0.086 A 
BRANCH  35  39
ATOM     39  C   LIG    1        4.160   0.207   5.013  0.00  0.00    +0.158 C 
BRANCH  39  40
ATOM     40  C   LIG    1        3.677   1.463   5.776  0.00  0.00    +0.309 C 
ATOM     41  O   LIG    1        3.643   1.386   7.025  0.00  0.00    -0.251 OA
BRANCH  40  42
ATOM     42  O   LIG    1        3.388   2.497   5.128  0.00  0.00    -0.480 OA
ATOM     43  H   LIG    1        3.433   2.491   4.192  0.00  0.00    +0.295 HD
ENDBRANCH  40  42
ENDBRANCH  39  40
ENDBRANCH  35  39
ENDBRANCH  30  31
ENDBRANCH   4  30
TORSDOF 11
