REMARK  Name = DB12361
REMARK                            x       y       z     vdW  Elec       q    Type
REMARK                         _______ _______ _______ _____ _____    ______ ____
ROOT
ATOM      1  C   LIG    1       -0.070  -0.074  -0.045  0.00  0.00    +0.018 C 
ENDROOT
BRANCH   1   2
ATOM      2  C   LIG    1       -0.716   1.326   0.050  0.00  0.00    +0.115 C 
BRANCH   2   7
ATOM      3  C   LIG    1       -6.097   0.332  -2.728  0.00  0.00    +0.001 A 
ATOM      4  C   LIG    1       -4.729   0.416  -2.482  0.00  0.00    +0.017 A 
ATOM      5  C   LIG    1       -4.234   1.172  -1.404  0.00  0.00    +0.079 A 
ATOM      6  C   LIG    1       -2.718   1.233  -1.265  0.00  0.00    +0.255 C 
ATOM      7  N   LIG    1       -2.198   1.314   0.004  0.00  0.00    -0.255 N 
ATOM      8  C   LIG    1       -2.875   1.458   1.187  0.00  0.00    +0.139 C 
ATOM      9 CL   LIG    1       -2.143   0.768   2.649  0.00  0.00    -0.063 Cl
ATOM     10  C   LIG    1       -4.050   2.068   1.421  0.00  0.00    +0.231 C 
ATOM     11  O   LIG    1       -4.775   2.685   0.464  0.00  0.00    -0.460 OA
ATOM     12  O   LIG    1       -2.038   1.184  -2.297  0.00  0.00    -0.269 OA
ATOM     13  C   LIG    1       -5.150   1.874  -0.583  0.00  0.00    +0.140 A 
ATOM     14  C   LIG    1       -6.518   1.784  -0.854  0.00  0.00    +0.047 A 
ATOM     15  C   LIG    1       -6.993   1.015  -1.913  0.00  0.00    +0.004 A 
ENDBRANCH   2   7
ENDBRANCH   1   2
BRANCH   1  16
ATOM     16  C   LIG    1        1.460  -0.031   0.102  0.00  0.00    -0.017 C 
BRANCH  16  17
ATOM     17  C   LIG    1        2.088  -1.434   0.015  0.00  0.00    -0.078 C 
BRANCH  17  18
ATOM     18  N   LIG    1        3.635  -1.372   0.060  0.00  0.00    +0.382 N 
ATOM     19  H   LIG    1        3.952  -0.746  -0.667  0.00  0.00    -0.081 HD
ATOM     20  C   LIG    1        4.151  -0.837   1.421  0.00  0.00    -0.051 C 
ATOM     21  C   LIG    1        5.642  -1.108   1.601  0.00  0.00    -0.040 C 
ATOM     22  C   LIG    1        6.383  -1.963   0.855  0.00  0.00    -0.029 C 
ATOM     23  C   LIG    1        5.760  -2.622  -0.382  0.00  0.00    +0.018 C 
ATOM     24  C   LIG    1        4.228  -2.763  -0.256  0.00  0.00    -0.074 C 
BRANCH  22  25
ATOM     25  C   LIG    1        7.854  -2.071   1.084  0.00  0.00    +0.067 A 
ATOM     26  N   LIG    1        8.595  -2.381  -0.018  0.00  0.00    -0.255 NA
ATOM     27  C   LIG    1        9.944  -2.475   0.105  0.00  0.00    +0.111 A 
ATOM     28  C   LIG    1       10.609  -2.260   1.311  0.00  0.00    +0.020 A 
ATOM     29  C   LIG    1        9.852  -1.935   2.437  0.00  0.00    +0.004 A 
ATOM     30  C   LIG    1        8.463  -1.833   2.328  0.00  0.00    +0.028 A 
ENDBRANCH  22  25
ENDBRANCH  17  18
ENDBRANCH  16  17
ENDBRANCH   1  16
TORSDOF 6
