REMARK  Name = DB12789
REMARK                            x       y       z     vdW  Elec       q    Type
REMARK                         _______ _______ _______ _____ _____    ______ ____
ROOT
ATOM      1  C   LIG    1        1.930  -0.158   0.487  0.00  0.00    +0.046 C 
ATOM      2  C   LIG    1        2.516  -0.405   1.902  0.00  0.00    +0.124 C 
ATOM      3  C   LIG    1        3.590  -1.496   1.710  0.00  0.00    +0.063 C 
ATOM      4  C   LIG    1        3.911  -1.571   0.211  0.00  0.00    +0.121 C 
ATOM      5  C   LIG    1        2.541  -1.247  -0.419  0.00  0.00    +0.031 C 
ENDROOT
BRANCH   1   7
ATOM      6  C   LIG    1       -0.362   0.797  -0.056  0.00  0.00    -0.000 C 
ATOM      7  C   LIG    1        0.407  -0.179   0.461  0.00  0.00    -0.022 C 
BRANCH   6   8
ATOM      8  C   LIG    1       -1.884   0.819  -0.134  0.00  0.00    +0.137 C 
BRANCH   8   9
ATOM      9  O   LIG    1       -2.311   2.060   0.391  0.00  0.00    -0.388 OA
ATOM     10  H   LIG    1       -1.921   2.763  -0.133  0.00  0.00    +0.210 HD
ENDBRANCH   8   9
BRANCH   8  11
ATOM     11  C   LIG    1       -2.624  -0.338   0.586  0.00  0.00    +0.035 C 
BRANCH  11  12
ATOM     12  C   LIG    1       -4.166  -0.311   0.480  0.00  0.00    +0.003 C 
BRANCH  12  13
ATOM     13  C   LIG    1       -4.708  -0.549  -0.943  0.00  0.00    -0.000 C 
BRANCH  13  15
ATOM     14  C   LIG    1       -6.782  -0.774  -2.428  0.00  0.00    +0.004 C 
ATOM     15  C   LIG    1       -6.244  -0.515  -1.014  0.00  0.00    -0.003 C 
ENDBRANCH  13  15
ENDBRANCH  12  13
ENDBRANCH  11  12
ENDBRANCH   8  11
ENDBRANCH   6   8
ENDBRANCH   1   7
BRANCH   2  16
ATOM     16  O   LIG    1        3.078   0.797   2.397  0.00  0.00    -0.391 OA
ATOM     17  H   LIG    1        2.364   1.371   2.683  0.00  0.00    +0.210 HD
ENDBRANCH   2  16
BRANCH   4  18
ATOM     18  O   LIG    1        4.890  -0.597  -0.109  0.00  0.00    -0.391 OA
ATOM     19  H   LIG    1        5.148  -0.713  -1.027  0.00  0.00    +0.210 HD
ENDBRANCH   4  18
BRANCH   5  20
ATOM     20  C   LIG    1        2.551  -0.872  -1.922  0.00  0.00    +0.033 C 
BRANCH  20  21
ATOM     21  C   LIG    1        2.837  -2.050  -2.839  0.00  0.00    -0.031 C 
ATOM     22  C   LIG    1        1.947  -2.680  -3.632  0.00  0.00    -0.031 C 
BRANCH  22  23
ATOM     23  C   LIG    1        0.477  -2.330  -3.793  0.00  0.00    +0.027 C 
BRANCH  23  24
ATOM     24  C   LIG    1       -0.426  -2.992  -2.733  0.00  0.00    +0.015 C 
BRANCH  24  25
ATOM     25  C   LIG    1       -1.894  -2.506  -2.742  0.00  0.00    +0.121 C 
BRANCH  25  26
ATOM     26  C   LIG    1       -2.704  -2.883  -3.990  0.00  0.00    +0.305 C 
ATOM     27  O   LIG    1       -2.324  -3.678  -4.848  0.00  0.00    -0.251 OA
BRANCH  26  28
ATOM     28  O   LIG    1       -3.904  -2.236  -4.011  0.00  0.00    -0.481 OA
ATOM     29  H   LIG    1       -4.428  -2.466  -4.781  0.00  0.00    +0.295 HD
ENDBRANCH  26  28
ENDBRANCH  25  26
ENDBRANCH  24  25
ENDBRANCH  23  24
ENDBRANCH  22  23
ENDBRANCH  20  21
ENDBRANCH   5  20
TORSDOF 16
