REMARK  Name = DB12977
REMARK                            x       y       z     vdW  Elec       q    Type
REMARK                         _______ _______ _______ _____ _____    ______ ____
ROOT
ATOM      1  N   LIG    1        1.536  -0.584  -0.026  0.00  0.00    -0.266 N 
ATOM      2  C   LIG    1        2.205  -1.025  -1.134  0.00  0.00    +0.220 C 
ATOM      3  O   LIG    1        1.749  -1.320  -2.239  0.00  0.00    -0.275 OA
ATOM      4  C   LIG    1        3.693  -1.056  -0.796  0.00  0.00    +0.098 C 
ATOM      5  C   LIG    1        3.776  -0.912   0.700  0.00  0.00    +0.034 C 
ATOM      6  C   LIG    1        2.461  -0.254   1.078  0.00  0.00    +0.108 C 
ENDROOT
BRANCH   1  10
ATOM      7  C   LIG    1       -2.505   0.635  -0.103  0.00  0.00    -0.019 A 
ATOM      8  C   LIG    1       -1.535   1.434   0.506  0.00  0.00    +0.008 A 
ATOM      9  C   LIG    1       -0.203   1.030   0.527  0.00  0.00    +0.024 A 
ATOM     10  C   LIG    1        0.178  -0.181  -0.065  0.00  0.00    +0.037 A 
ATOM     11  C   LIG    1       -0.800  -0.988  -0.665  0.00  0.00    +0.024 A 
ATOM     12  C   LIG    1       -2.132  -0.582  -0.683  0.00  0.00    +0.008 A 
BRANCH   7  13
ATOM     13  C   LIG    1       -3.963   1.098  -0.104  0.00  0.00    +0.145 C 
BRANCH  13  14
ATOM     14  O   LIG    1       -4.657   0.736  -1.286  0.00  0.00    -0.387 OA
ATOM     15  H   LIG    1       -4.247   1.183  -2.029  0.00  0.00    +0.210 HD
ENDBRANCH  13  14
BRANCH  13  16
ATOM     16  C   LIG    1       -4.725   0.566   1.131  0.00  0.00    +0.036 C 
BRANCH  16  17
ATOM     17  C   LIG    1       -6.146   1.143   1.298  0.00  0.00    +0.003 C 
BRANCH  17  18
ATOM     18  C   LIG    1       -6.853   0.636   2.568  0.00  0.00    -0.000 C 
BRANCH  18  20
ATOM     19  C   LIG    1       -8.963   0.729   4.018  0.00  0.00    +0.004 C 
ATOM     20  C   LIG    1       -8.262   1.230   2.748  0.00  0.00    -0.003 C 
ENDBRANCH  18  20
ENDBRANCH  17  18
ENDBRANCH  16  17
ENDBRANCH  13  16
ENDBRANCH   7  13
ENDBRANCH   1  10
BRANCH   6  21
ATOM     21  C   LIG    1        1.958  -0.667   2.480  0.00  0.00    +0.183 C 
BRANCH  21  22
ATOM     22  O   LIG    1        2.857  -0.168   3.461  0.00  0.00    -0.373 OA
BRANCH  22  23
ATOM     23  C   LIG    1        2.517  -0.536   4.791  0.00  0.00    +0.202 C 
BRANCH  23  24
ATOM     24  C   LIG    1        3.484   0.113   5.757  0.00  0.00    +0.016 A 
ATOM     25  S   LIG    1        3.748   1.836   5.761  0.00  0.00    -0.084 S 
ATOM     26  C   LIG    1        4.896   1.744   7.075  0.00  0.00    +0.096 A 
ATOM     27  C   LIG    1        5.052   0.423   7.475  0.00  0.00    +0.023 A 
ATOM     28  C   LIG    1        4.267  -0.475   6.746  0.00  0.00    +0.014 A 
BRANCH  26  29
ATOM     29  C   LIG    1        5.559   2.930   7.625  0.00  0.00    +0.346 C 
ATOM     30  O   LIG    1        6.378   2.866   8.545  0.00  0.00    -0.244 OA
BRANCH  29  31
ATOM     31  O   LIG    1        5.164   4.082   7.017  0.00  0.00    -0.458 OA
BRANCH  31  32
ATOM     32  C   LIG    1        5.692   5.356   7.386  0.00  0.00    +0.171 C 
ATOM     33  C   LIG    1        7.092   5.572   6.778  0.00  0.00    +0.052 C 
ATOM     34  C   LIG    1        4.696   6.426   6.917  0.00  0.00    +0.052 C 
ENDBRANCH  31  32
ENDBRANCH  29  31
ENDBRANCH  26  29
ENDBRANCH  23  24
ENDBRANCH  22  23
ENDBRANCH  21  22
ENDBRANCH   6  21
TORSDOF 14
