REMARK  Name = DB12399
REMARK                            x       y       z     vdW  Elec       q    Type
REMARK                         _______ _______ _______ _____ _____    ______ ____
ROOT
ATOM      1  C   LIG    1       -2.544  -1.655   1.346  0.00  0.00    +0.064 C 
ATOM      2  C   LIG    1       -1.954  -1.060   0.051  0.00  0.00    +0.167 C 
ATOM      3  C   LIG    1       -2.498  -1.716  -1.235  0.00  0.00    +0.064 C 
ATOM      4  O   LIG    1       -0.545  -1.217   0.077  0.00  0.00    -0.477 OA
ATOM      5  C   LIG    1       -0.003   0.015   0.060  0.00  0.00    +0.140 C 
ATOM      6  C   LIG    1       -0.876   1.035  -0.035  0.00  0.00    +0.071 C 
ATOM      7  C   LIG    1       -2.205   0.456   0.010  0.00  0.00    +0.210 C 
ATOM      8  O   LIG    1       -3.271   1.073   0.017  0.00  0.00    -0.288 OA
ENDROOT
BRANCH   6   9
ATOM      9  C   LIG    1       -0.602   2.492  -0.026  0.00  0.00    -0.008 A 
ATOM     10  C   LIG    1        0.325   3.039   0.872  0.00  0.00    +0.047 A 
ATOM     11  C   LIG    1        0.598   4.407   0.870  0.00  0.00    +0.124 A 
ATOM     12  F   LIG    1        1.496   4.918   1.742  0.00  0.00    -0.205 F 
ATOM     13  C   LIG    1       -0.054   5.247  -0.032  0.00  0.00    +0.038 A 
ATOM     14  C   LIG    1       -0.978   4.717  -0.931  0.00  0.00    +0.003 A 
ATOM     15  C   LIG    1       -1.248   3.349  -0.929  0.00  0.00    +0.009 A 
ENDBRANCH   6   9
BRANCH   5  16
ATOM     16  C   LIG    1        1.476   0.009   0.007  0.00  0.00    +0.018 A 
ATOM     17  C   LIG    1        2.174   0.902  -0.815  0.00  0.00    +0.013 A 
ATOM     18  C   LIG    1        3.565   0.897  -0.842  0.00  0.00    +0.029 A 
ATOM     19  C   LIG    1        4.271  -0.007  -0.047  0.00  0.00    +0.105 A 
ATOM     20  C   LIG    1        3.586  -0.905   0.772  0.00  0.00    +0.029 A 
ATOM     21  C   LIG    1        2.194  -0.894   0.798  0.00  0.00    +0.013 A 
BRANCH  19  22
ATOM     22  S   LIG    1        6.061  -0.002  -0.089  0.00  0.00    +0.056 S 
ATOM     23  O   LIG    1        6.459   0.254  -1.478  0.00  0.00    -0.153 OA
ATOM     24  O   LIG    1        6.532  -1.194   0.625  0.00  0.00    -0.153 OA
BRANCH  22  25
ATOM     25  N   LIG    1        6.517   1.401   0.858  0.00  0.00    -0.204 NA
ATOM     26  H   LIG    1        6.296   1.332   1.855  0.00  0.00    +0.144 HD
ATOM     27  H   LIG    1        6.251   2.299   0.446  0.00  0.00    +0.144 HD
ENDBRANCH  22  25
ENDBRANCH  19  22
ENDBRANCH   5  16
TORSDOF 4
