REMARK  Name = DB12808
REMARK                            x       y       z     vdW  Elec       q    Type
REMARK                         _______ _______ _______ _____ _____    ______ ____
ROOT
ATOM      1  C   LIG    1       -0.720   1.098   0.046  0.00  0.00    +0.024 A 
ATOM      2  C   LIG    1       -0.027  -0.121  -0.026  0.00  0.00    +0.128 A 
ATOM      3  C   LIG    1       -0.762  -1.316  -0.089  0.00  0.00    +0.047 A 
ATOM      4  C   LIG    1       -2.155  -1.296  -0.082  0.00  0.00    +0.012 A 
ATOM      5  C   LIG    1       -2.856  -0.087  -0.010  0.00  0.00    -0.017 A 
ATOM      6  C   LIG    1       -2.119   1.101   0.055  0.00  0.00    +0.020 A 
ENDROOT
BRANCH   1  11
ATOM      7  C   LIG    1        1.093   4.253  -1.080  0.00  0.00    -0.020 A 
ATOM      8  C   LIG    1        1.396   4.832   0.182  0.00  0.00    +0.033 A 
ATOM      9  C   LIG    1        1.000   4.184   1.360  0.00  0.00    +0.024 A 
ATOM     10  C   LIG    1        0.313   2.977   1.321  0.00  0.00    +0.010 A 
ATOM     11  C   LIG    1        0.007   2.388   0.100  0.00  0.00    -0.014 A 
ATOM     12  C   LIG    1        0.397   3.027  -1.077  0.00  0.00    +0.014 A 
BRANCH   8  13
ATOM     13  N   LIG    1        2.085   6.043   0.315  0.00  0.00    -0.330 N 
ATOM     14  C   LIG    1        1.459   7.239   0.873  0.00  0.00    +0.105 C 
ATOM     15  C   LIG    1        2.510   8.342   0.980  0.00  0.00    +0.020 C 
ATOM     16  C   LIG    1        3.831   7.587   1.011  0.00  0.00    +0.020 C 
ATOM     17  C   LIG    1        3.417   6.120   0.912  0.00  0.00    +0.105 C 
ENDBRANCH   8  13
BRANCH   7  19
ATOM     18  C   LIG    1        0.837   6.312  -2.596  0.00  0.00    +0.015 C 
ATOM     19  C   LIG    1        1.496   4.917  -2.442  0.00  0.00    -0.011 C 
ATOM     20  C   LIG    1        3.037   5.045  -2.561  0.00  0.00    +0.015 C 
ATOM     21  C   LIG    1        1.040   4.093  -3.682  0.00  0.00    +0.015 C 
ENDBRANCH   7  19
ENDBRANCH   1  11
BRANCH   5  22
ATOM     22  C   LIG    1       -4.347  -0.063  -0.008  0.00  0.00    -0.018 A 
ATOM     23  C   LIG    1       -5.045   0.899  -0.746  0.00  0.00    +0.009 A 
ATOM     24  C   LIG    1       -6.437   0.926  -0.743  0.00  0.00    +0.015 A 
ATOM     25  C   LIG    1       -7.165  -0.010   0.002  0.00  0.00    +0.059 A 
ATOM     26  C   LIG    1       -6.467  -0.976   0.740  0.00  0.00    +0.015 A 
ATOM     27  C   LIG    1       -5.075  -1.000   0.733  0.00  0.00    +0.009 A 
BRANCH  25  28
ATOM     28  C   LIG    1       -8.676   0.034  -0.002  0.00  0.00    +0.337 C 
ATOM     29  O   LIG    1       -9.309   0.866  -0.652  0.00  0.00    -0.245 OA
BRANCH  28  30
ATOM     30  O   LIG    1       -9.286  -0.914   0.768  0.00  0.00    -0.477 OA
ATOM     31  H   LIG    1      -10.243  -0.847   0.736  0.00  0.00    +0.295 HD
ENDBRANCH  28  30
ENDBRANCH  25  28
ENDBRANCH   5  22
BRANCH   2  32
ATOM     32  O   LIG    1        1.356  -0.068  -0.031  0.00  0.00    -0.489 OA
BRANCH  32  33
ATOM     33  C   LIG    1        2.111  -1.273  -0.130  0.00  0.00    +0.257 C 
BRANCH  33  34
ATOM     34  C   LIG    1        3.610  -0.940  -0.097  0.00  0.00    +0.196 C 
BRANCH  34  35
ATOM     35  O   LIG    1        3.998  -0.248  -1.267  0.00  0.00    -0.392 OA
ATOM     36  H   LIG    1        4.925  -0.010  -1.189  0.00  0.00    +0.210 HD
ENDBRANCH  34  35
ENDBRANCH  33  34
ENDBRANCH  32  33
ENDBRANCH   2  32
TORSDOF 10
