REMARK  Name = DB12655
REMARK                            x       y       z     vdW  Elec       q    Type
REMARK                         _______ _______ _______ _____ _____    ______ ____
ROOT
ATOM      1  C   LIG    1       -9.521  -9.949   1.940  0.00  0.00    +0.005 C 
ATOM      2  C   LIG    1       -8.353  -9.953   0.941  0.00  0.00    -0.029 C 
ATOM      3  C   LIG    1       -7.474 -11.229   1.106  0.00  0.00    -0.079 C 
ATOM      4  N   LIG    1       -6.269 -11.218   0.132  0.00  0.00    +0.383 N 
ATOM      5  H   LIG    1       -5.665 -12.004   0.330  0.00  0.00    -0.085 HD
ATOM      6  H   LIG    1       -6.596 -11.323  -0.818  0.00  0.00    -0.085 HD
ATOM      7  C   LIG    1       -5.470  -9.903   0.253  0.00  0.00    -0.037 C 
ATOM      8  C   LIG    1       -4.330  -9.628  -0.718  0.00  0.00    +0.007 C 
ATOM      9  C   LIG    1       -4.554 -10.190  -2.147  0.00  0.00    +0.009 C 
ATOM     10  C   LIG    1       -4.207  -8.063  -0.561  0.00  0.00    +0.075 C 
ATOM     11  C   LIG    1       -3.117  -7.720   0.494  0.00  0.00    +0.065 C 
ATOM     12  C   LIG    1       -3.198  -6.350   1.160  0.00  0.00    -0.070 C 
ATOM     13  C   LIG    1       -3.345  -6.347   2.680  0.00  0.00    +0.039 C 
ATOM     14  C   LIG    1       -3.136  -5.194   0.459  0.00  0.00    -0.067 C 
ATOM     15  C   LIG    1       -3.097  -3.797   1.094  0.00  0.00    +0.035 C 
ATOM     16  C   LIG    1       -2.518  -2.892   0.007  0.00  0.00    +0.003 C 
ATOM     17  C   LIG    1       -2.774  -1.344   0.081  0.00  0.00    -0.026 C 
ATOM     18  C   LIG    1       -4.270  -0.914   0.027  0.00  0.00    +0.012 C 
ATOM     19  C   LIG    1       -2.210  -0.763   1.426  0.00  0.00    +0.009 C 
ATOM     20  C   LIG    1       -0.670  -0.699   1.497  0.00  0.00    +0.021 C 
ATOM     21  C   LIG    1       -0.144   0.128   0.313  0.00  0.00    +0.076 C 
ATOM     22  C   LIG    1       -0.498  -0.637  -0.974  0.00  0.00    +0.024 C 
ATOM     23  C   LIG    1       -2.040  -0.682  -1.165  0.00  0.00    -0.003 C 
ATOM     24  C   LIG    1       -2.417  -1.377  -2.513  0.00  0.00    +0.004 C 
ATOM     25  C   LIG    1       -2.270  -2.918  -2.472  0.00  0.00    +0.005 C 
ATOM     26  C   LIG    1       -3.056  -3.496  -1.278  0.00  0.00    +0.000 C 
ATOM     27  C   LIG    1       -3.012  -5.016  -1.061  0.00  0.00    +0.018 C 
ATOM     28  C   LIG    1       -4.112  -5.757  -1.855  0.00  0.00    +0.011 C 
ATOM     29  C   LIG    1       -4.025  -7.295  -1.901  0.00  0.00    +0.036 C 
ATOM     30  O   LIG    1       -5.480  -7.650  -0.011  0.00  0.00    -0.371 OA
ATOM     31  C   LIG    1       -6.396  -8.732  -0.012  0.00  0.00    +0.106 C 
ATOM     32  C   LIG    1       -7.500  -8.662   1.050  0.00  0.00    +0.031 C 
ENDROOT
BRANCH  21  33
ATOM     33  N   LIG    1        1.331   0.180   0.391  0.00  0.00    -0.192 NA
ATOM     34  H   LIG    1        1.641  -0.062   1.336  0.00  0.00    +0.148 HD
BRANCH  33  35
ATOM     35  S   LIG    1        2.100   1.655  -0.186  0.00  0.00    +0.027 S 
ATOM     36  C   LIG    1        3.890   1.132  -0.448  0.00  0.00    +0.214 C 
ATOM     37  O   LIG    1        2.058   2.624   0.915  0.00  0.00    -0.158 OA
ATOM     38  O   LIG    1        1.519   1.992  -1.489  0.00  0.00    -0.158 OA
ENDBRANCH  33  35
ENDBRANCH  21  33
TORSDOF 2
