REMARK  Name = DB12563
REMARK                            x       y       z     vdW  Elec       q    Type
REMARK                         _______ _______ _______ _____ _____    ______ ____
ROOT
ATOM      1  C   LIG    1        1.574   0.055  -0.278  0.00  0.00    +0.008 A 
ATOM      2  C   LIG    1        2.309  -0.874  -1.028  0.00  0.00    +0.129 A 
ATOM      3  F   LIG    1        1.683  -1.707  -1.891  0.00  0.00    -0.205 F 
ATOM      4  C   LIG    1        3.696  -0.950  -0.900  0.00  0.00    +0.047 A 
ATOM      5  C   LIG    1        4.386  -0.102  -0.027  0.00  0.00    -0.014 A 
ATOM      6  C   LIG    1        3.653   0.834   0.712  0.00  0.00    +0.009 A 
ATOM      7  C   LIG    1        2.267   0.912   0.591  0.00  0.00    +0.009 A 
ENDROOT
BRANCH   5   8
ATOM      8  C   LIG    1        5.874  -0.182   0.090  0.00  0.00    -0.002 A 
ATOM      9  C   LIG    1        6.557  -0.416   1.312  0.00  0.00    +0.085 A 
ATOM     10  C   LIG    1        7.970  -0.469   1.317  0.00  0.00    +0.056 A 
ATOM     11 CL   LIG    1        8.895  -0.799   2.748  0.00  0.00    -0.083 Cl
ATOM     12  C   LIG    1        8.682  -0.269   0.135  0.00  0.00    +0.021 A 
ATOM     13  C   LIG    1        8.014  -0.036  -1.059  0.00  0.00    +0.002 A 
ATOM     14  C   LIG    1        6.624   0.002  -1.078  0.00  0.00    +0.009 A 
BRANCH   9  15
ATOM     15  C   LIG    1        5.800  -0.705   2.569  0.00  0.00    +0.341 C 
ATOM     16  O   LIG    1        5.002  -1.638   2.683  0.00  0.00    -0.245 OA
BRANCH  15  17
ATOM     17  O   LIG    1        6.027   0.237   3.513  0.00  0.00    -0.464 OA
ATOM     18  C   LIG    1        5.373   0.175   4.772  0.00  0.00    +0.280 C 
ENDBRANCH  15  17
ENDBRANCH   9  15
ENDBRANCH   5   8
BRANCH   1  20
ATOM     19  C   LIG    1       -0.665  -1.072   0.183  0.00  0.00    +0.033 C 
ATOM     20  C   LIG    1        0.050   0.137  -0.455  0.00  0.00    +0.103 C 
BRANCH  20  21
ATOM     21  N   LIG    1       -0.529   1.405   0.007  0.00  0.00    -0.307 N 
ATOM     22  H   LIG    1       -0.012   1.883   0.730  0.00  0.00    +0.149 HD
ATOM     23  C   LIG    1       -1.671   1.972  -0.427  0.00  0.00    +0.237 C 
ATOM     24  O   LIG    1       -2.373   1.454  -1.300  0.00  0.00    -0.273 OA
BRANCH  23  25
ATOM     25  C   LIG    1       -2.076   3.328   0.210  0.00  0.00    +0.111 C 
ATOM     26  C   LIG    1       -3.565   3.602   0.328  0.00  0.00    +0.038 C 
ATOM     27  C   LIG    1       -2.754   4.327  -0.719  0.00  0.00    +0.038 C 
BRANCH  25  28
ATOM     28  N   LIG    1       -1.224   3.848   1.291  0.00  0.00    -0.294 N 
ATOM     29  H   LIG    1       -1.367   3.432   2.200  0.00  0.00    +0.150 HD
ATOM     30  C   LIG    1       -0.168   4.673   1.137  0.00  0.00    +0.318 C 
ATOM     31  O   LIG    1        0.203   5.086   0.036  0.00  0.00    -0.266 OA
BRANCH  30  32
ATOM     32  C   LIG    1        0.639   5.031   2.397  0.00  0.00    +0.469 C 
ATOM     33  F   LIG    1        1.055   6.296   2.325  0.00  0.00    -0.162 F 
ATOM     34  F   LIG    1        1.705   4.234   2.465  0.00  0.00    -0.162 F 
ATOM     35  F   LIG    1       -0.094   4.869   3.502  0.00  0.00    -0.162 F 
ENDBRANCH  30  32
ENDBRANCH  25  28
ENDBRANCH  23  25
ENDBRANCH  20  21
ENDBRANCH   1  20
TORSDOF 8
