REMARK  Name = DB12591
REMARK                            x       y       z     vdW  Elec       q    Type
REMARK                         _______ _______ _______ _____ _____    ______ ____
ROOT
ATOM      1  N   LIG    1       -2.732  -2.395  -0.140  0.00  0.00    -0.321 N 
ATOM      2  C   LIG    1       -1.950  -1.257  -0.300  0.00  0.00    +0.146 A 
ATOM      3  N   LIG    1       -0.668  -1.180  -0.690  0.00  0.00    -0.212 NA
ATOM      4  C   LIG    1       -0.098   0.064  -0.781  0.00  0.00    +0.154 A 
ATOM      5  C   LIG    1       -0.818   1.241  -0.474  0.00  0.00    +0.130 A 
ATOM      6  N   LIG    1       -0.466   2.568  -0.490  0.00  0.00    -0.232 NA
ATOM      7  C   LIG    1       -1.552   3.203  -0.111  0.00  0.00    +0.200 A 
ATOM      8  N   LIG    1       -2.630   2.386   0.162  0.00  0.00    -0.333 N 
ATOM      9  C   LIG    1       -3.953   2.792   0.601  0.00  0.00    +0.150 C 
ATOM     10  C   LIG    1       -2.160   1.113  -0.070  0.00  0.00    +0.083 A 
ATOM     11  C   LIG    1       -2.756  -0.157   0.025  0.00  0.00    +0.045 A 
ATOM     12  C   LIG    1       -4.051  -0.623   0.372  0.00  0.00    +0.044 A 
ATOM     13  C   LIG    1       -4.014  -2.019   0.296  0.00  0.00    +0.107 A 
ENDROOT
BRANCH  13  14
ATOM     14  C   LIG    1       -5.139  -2.933   0.477  0.00  0.00    +0.264 C 
ATOM     15  N   LIG    1       -6.101  -2.616   1.395  0.00  0.00    -0.290 N 
ATOM     16  O   LIG    1       -5.213  -3.947  -0.221  0.00  0.00    -0.268 OA
BRANCH  15  17
ATOM     17  C   LIG    1       -5.965  -1.624   2.477  0.00  0.00    +0.077 C 
ATOM     18  C   LIG    1       -6.128  -2.067   3.920  0.00  0.00    +0.024 C 
ATOM     19  C   LIG    1       -4.769  -1.672   3.414  0.00  0.00    +0.024 C 
ENDBRANCH  15  17
BRANCH  15  20
ATOM     20  C   LIG    1       -7.358  -3.380   1.459  0.00  0.00    +0.077 C 
ATOM     21  C   LIG    1       -8.682  -2.644   1.423  0.00  0.00    +0.024 C 
ATOM     22  C   LIG    1       -8.256  -3.476   0.239  0.00  0.00    +0.024 C 
ENDBRANCH  15  20
ENDBRANCH  13  14
BRANCH   1  24
ATOM     23  C   LIG    1       -2.324  -4.099  -1.888  0.00  0.00    +0.027 C 
ATOM     24  C   LIG    1       -2.236  -3.754  -0.393  0.00  0.00    +0.120 C 
ENDBRANCH   1  24
BRANCH   4  25
ATOM     25  N   LIG    1        1.243   0.198  -1.193  0.00  0.00    -0.281 N 
ATOM     26  H   LIG    1        1.528   1.166  -1.200  0.00  0.00    +0.155 HD
BRANCH  25  27
ATOM     27  C   LIG    1        2.167  -0.752  -1.579  0.00  0.00    +0.146 A 
ATOM     28  N   LIG    1        1.928  -2.046  -1.637  0.00  0.00    -0.156 NA
ATOM     29  N   LIG    1        3.060  -2.616  -2.070  0.00  0.00    -0.270 N 
ATOM     30  C   LIG    1        3.097  -4.066  -2.198  0.00  0.00    +0.172 C 
ATOM     31  C   LIG    1        4.074  -1.711  -2.276  0.00  0.00    +0.038 A 
ATOM     32  C   LIG    1        5.465  -2.083  -2.738  0.00  0.00    +0.065 C 
ATOM     33  C   LIG    1        3.488  -0.495  -1.967  0.00  0.00    +0.068 A 
ENDBRANCH  25  27
ENDBRANCH   4  25
TORSDOF 6
