REMARK  Name = DB12782
REMARK                            x       y       z     vdW  Elec       q    Type
REMARK                         _______ _______ _______ _____ _____    ______ ____
ROOT
ATOM      1  N   LIG    1        1.347   0.165  -0.006  0.00  0.00    +0.391 N 
ATOM      2  H   LIG    1        1.840  -0.717   0.001  0.00  0.00    -0.080 HD
ATOM      3  C   LIG    1        1.876   1.007  -1.189  0.00  0.00    -0.064 C 
ATOM      4  C   LIG    1        3.396   0.698  -1.287  0.00  0.00    +0.027 C 
ATOM      5  C   LIG    1        4.205   1.066   0.008  0.00  0.00    +0.122 C 
ATOM      6  C   LIG    1        3.381   0.699   1.295  0.00  0.00    +0.027 C 
ATOM      7  C   LIG    1        1.521   2.448  -0.776  0.00  0.00    -0.017 C 
ATOM      8  C   LIG    1        1.517   2.451   0.760  0.00  0.00    -0.017 C 
ATOM      9  C   LIG    1        1.862   1.009   1.181  0.00  0.00    -0.064 C 
ENDROOT
BRANCH   5  10
ATOM     10  C   LIG    1        4.746   2.527   0.011  0.00  0.00    +0.160 A 
ATOM     11  N   LIG    1        4.988   3.116   1.219  0.00  0.00    -0.237 NA
ATOM     12  C   LIG    1        5.487   4.379   1.203  0.00  0.00    +0.114 A 
ATOM     13  C   LIG    1        5.754   5.063   0.017  0.00  0.00    +0.039 A 
ATOM     14  C   LIG    1        5.486   4.385  -1.173  0.00  0.00    +0.114 A 
ATOM     15  N   LIG    1        4.987   3.122  -1.195  0.00  0.00    -0.237 NA
ENDBRANCH   5  10
BRANCH   5  16
ATOM     16  O   LIG    1        5.424   0.343   0.016  0.00  0.00    -0.381 OA
ATOM     17  H   LIG    1        5.225  -0.596   0.025  0.00  0.00    +0.211 HD
ENDBRANCH   5  16
BRANCH   1  18
ATOM     18  C   LIG    1       -0.173  -0.173  -0.026  0.00  0.00    -0.003 C 
BRANCH  18  21
ATOM     19  C   LIG    1       -0.660  -2.855   2.659  0.00  0.00    +0.000 A 
ATOM     20  C   LIG    1       -0.256  -2.186   1.505  0.00  0.00    +0.004 A 
ATOM     21  C   LIG    1       -0.645  -0.860   1.267  0.00  0.00    -0.038 A 
ATOM     22  C   LIG    1       -1.446  -0.207   2.226  0.00  0.00    +0.043 A 
ATOM     23 CL   LIG    1       -1.953   1.438   2.047  0.00  0.00    -0.083 Cl
ATOM     24  C   LIG    1       -1.849  -0.885   3.378  0.00  0.00    +0.020 A 
ATOM     25  C   LIG    1       -1.460  -2.205   3.595  0.00  0.00    +0.001 A 
ENDBRANCH  18  21
BRANCH  18  26
ATOM     26  C   LIG    1       -0.650  -0.914  -1.290  0.00  0.00    -0.038 A 
ATOM     27  C   LIG    1       -1.926  -0.679  -1.840  0.00  0.00    +0.043 A 
ATOM     28 CL   LIG    1       -3.039   0.438  -1.129  0.00  0.00    -0.083 Cl
ATOM     29  C   LIG    1       -2.328  -1.356  -2.994  0.00  0.00    +0.020 A 
ATOM     30  C   LIG    1       -1.477  -2.269  -3.610  0.00  0.00    +0.001 A 
ATOM     31  C   LIG    1       -0.216  -2.513  -3.074  0.00  0.00    +0.000 A 
ATOM     32  C   LIG    1        0.193  -1.842  -1.923  0.00  0.00    +0.004 A 
ENDBRANCH  18  26
ENDBRANCH   1  18
TORSDOF 5
