REMARK  Name = DB12952
REMARK                            x       y       z     vdW  Elec       q    Type
REMARK                         _______ _______ _______ _____ _____    ______ ____
ROOT
ATOM      1  C   LIG    1       -1.815  -1.574  -0.686  0.00  0.00    +0.008 C 
ATOM      2  C   LIG    1       -0.568  -0.831  -1.212  0.00  0.00    +0.043 C 
ATOM      3  C   LIG    1        0.012  -0.022  -0.009  0.00  0.00    +0.132 C 
ATOM      4  C   LIG    1       -0.474  -0.851   1.239  0.00  0.00    +0.013 C 
ATOM      5  C   LIG    1        0.371  -2.160   1.448  0.00  0.00    +0.015 C 
ATOM      6  C   LIG    1       -0.564  -0.075   2.585  0.00  0.00    +0.084 C 
ATOM      7  C   LIG    1       -1.355  -0.848   3.662  0.00  0.00    +0.138 C 
ATOM      8  O   LIG    1       -0.873  -1.044   4.776  0.00  0.00    -0.297 OA
ATOM      9  C   LIG    1       -2.763  -1.360   3.208  0.00  0.00    +0.072 C 
ATOM     10  C   LIG    1       -2.701  -2.043   1.797  0.00  0.00    +0.005 C 
ATOM     11  C   LIG    1       -4.119  -2.388   1.302  0.00  0.00    +0.012 C 
ATOM     12  C   LIG    1       -4.889  -3.289   2.285  0.00  0.00    +0.013 C 
ATOM     13  C   LIG    1       -6.253  -3.712   1.694  0.00  0.00    +0.012 C 
ATOM     14  C   LIG    1       -4.963  -2.559   3.646  0.00  0.00    -0.053 C 
ATOM     15  C   LIG    1       -6.136  -2.221   4.246  0.00  0.00    +0.051 C 
ATOM     16  C   LIG    1       -6.276  -1.503   5.511  0.00  0.00    +0.179 C 
ATOM     17  O   LIG    1       -7.364  -1.234   6.016  0.00  0.00    -0.288 OA
ATOM     18  C   LIG    1       -5.005  -1.130   6.111  0.00  0.00    +0.047 C 
ATOM     19  C   LIG    1       -3.807  -1.432   5.577  0.00  0.00    -0.012 C 
ATOM     20  C   LIG    1       -3.570  -2.213   4.268  0.00  0.00    +0.018 C 
ATOM     21  C   LIG    1       -2.852  -3.532   4.670  0.00  0.00    +0.021 C 
ATOM     22  C   LIG    1       -1.926  -1.158   0.788  0.00  0.00    +0.002 C 
ENDROOT
BRANCH   3  23
ATOM     23  C   LIG    1        1.565   0.135  -0.073  0.00  0.00    +0.190 C 
ATOM     24  O   LIG    1        2.256  -0.660  -0.719  0.00  0.00    -0.292 OA
BRANCH  23  25
ATOM     25  C   LIG    1        2.212   1.306   0.701  0.00  0.00    +0.233 C 
BRANCH  25  26
ATOM     26  O   LIG    1        3.625   1.263   0.595  0.00  0.00    -0.387 OA
ATOM     27  H   LIG    1        3.990   2.018   1.061  0.00  0.00    +0.210 HD
ENDBRANCH  25  26
ENDBRANCH  23  25
ENDBRANCH   3  23
BRANCH   3  28
ATOM     28  O   LIG    1       -0.512   1.302  -0.030  0.00  0.00    -0.380 OA
ATOM     29  H   LIG    1       -1.470   1.248  -0.064  0.00  0.00    +0.211 HD
ENDBRANCH   3  28
TORSDOF 4
