REMARK  Name = DB12050
REMARK                            x       y       z     vdW  Elec       q    Type
REMARK                         _______ _______ _______ _____ _____    ______ ____
ROOT
ATOM      1  C   LIG    1        3.451   1.484  -0.373  0.00  0.00    +0.191 C 
ATOM      2  C   LIG    1        3.874   2.673   0.514  0.00  0.00    +0.246 C 
ATOM      3  O   LIG    1        4.904   2.575   1.188  0.00  0.00    -0.273 OA
ATOM      4  N   LIG    1        3.090   3.797   0.446  0.00  0.00    -0.252 N 
ATOM      5  C   LIG    1        1.893   3.967  -0.307  0.00  0.00    +0.135 A 
ATOM      6  N   LIG    1        0.870   4.582   0.356  0.00  0.00    -0.239 NA
ATOM      7  C   LIG    1       -0.272   4.885  -0.301  0.00  0.00    +0.113 A 
ATOM      8  C   LIG    1       -0.458   4.593  -1.645  0.00  0.00    +0.020 A 
ATOM      9  C   LIG    1        0.568   3.944  -2.325  0.00  0.00    +0.013 A 
ATOM     10  C   LIG    1        1.763   3.588  -1.671  0.00  0.00    +0.023 A 
ATOM     11  C   LIG    1        2.791   2.816  -2.451  0.00  0.00    -0.009 A 
ATOM     12  C   LIG    1        2.932   3.060  -3.829  0.00  0.00    +0.009 A 
ATOM     13  C   LIG    1        3.852   2.356  -4.600  0.00  0.00    +0.001 A 
ATOM     14  C   LIG    1        4.649   1.384  -4.009  0.00  0.00    +0.000 A 
ATOM     15  C   LIG    1        4.518   1.119  -2.649  0.00  0.00    +0.006 A 
ATOM     16  C   LIG    1        3.595   1.817  -1.859  0.00  0.00    -0.011 A 
ENDROOT
BRANCH   1  18
ATOM     17  C   LIG    1        1.650  -0.229  -0.193  0.00  0.00    +0.234 C 
ATOM     18  N   LIG    1        2.123   1.007   0.039  0.00  0.00    -0.299 N 
ATOM     19  H   LIG    1        1.476   1.713   0.360  0.00  0.00    +0.150 HD
ATOM     20  O   LIG    1        2.321  -1.147  -0.670  0.00  0.00    -0.274 OA
BRANCH  17  22
ATOM     21  C   LIG    1        0.068  -1.489   1.343  0.00  0.00    +0.038 C 
ATOM     22  C   LIG    1        0.177  -0.475   0.193  0.00  0.00    +0.156 C 
BRANCH  22  23
ATOM     23  N   LIG    1       -0.613  -0.959  -0.942  0.00  0.00    -0.304 N 
ATOM     24  H   LIG    1       -0.896  -1.927  -0.896  0.00  0.00    +0.149 HD
ATOM     25  C   LIG    1       -0.936  -0.231  -2.026  0.00  0.00    +0.214 C 
ATOM     26  O   LIG    1       -0.625   0.954  -2.157  0.00  0.00    -0.276 OA
BRANCH  25  27
ATOM     27  C   LIG    1       -1.728  -0.970  -3.116  0.00  0.00    +0.104 C 
BRANCH  27  28
ATOM     28  C   LIG    1       -2.262  -0.061  -4.250  0.00  0.00    +0.122 C 
BRANCH  28  29
ATOM     29  C   LIG    1       -3.090  -0.815  -5.306  0.00  0.00    +0.391 C 
ATOM     30  F   LIG    1       -4.163  -1.392  -4.766  0.00  0.00    -0.171 F 
ATOM     31  F   LIG    1       -2.373  -1.771  -5.898  0.00  0.00    -0.171 F 
ATOM     32  F   LIG    1       -3.516   0.016  -6.257  0.00  0.00    -0.171 F 
ENDBRANCH  28  29
ENDBRANCH  27  28
ENDBRANCH  25  27
ENDBRANCH  22  23
ENDBRANCH  17  22
ENDBRANCH   1  18
BRANCH   4  33
ATOM     33  C   LIG    1        3.598   4.969   1.207  0.00  0.00    +0.143 C 
BRANCH  33  34
ATOM     34  C   LIG    1        4.490   5.933   0.395  0.00  0.00    +0.175 C 
BRANCH  34  35
ATOM     35  O   LIG    1        3.858   6.370  -0.791  0.00  0.00    -0.393 OA
ATOM     36  H   LIG    1        4.470   6.928  -1.276  0.00  0.00    +0.209 HD
ENDBRANCH  34  35
ENDBRANCH  33  34
ENDBRANCH   4  33
TORSDOF 9
