REMARK  Name = DB12194
REMARK                            x       y       z     vdW  Elec       q    Type
REMARK                         _______ _______ _______ _____ _____    ______ ____
ROOT
ATOM      1  C   LIG    1       -0.021  -0.220   0.064  0.00  0.00    +0.040 C 
ATOM      2  C   LIG    1        1.498  -0.086  -0.019  0.00  0.00    -0.059 C 
ATOM      3  C   LIG    1        2.170   1.327   0.063  0.00  0.00    +0.013 C 
ATOM      4  C   LIG    1        1.754   1.968   1.421  0.00  0.00    +0.021 C 
ATOM      5  C   LIG    1        1.854   2.277  -1.173  0.00  0.00    +0.006 C 
ATOM      6  C   LIG    1        2.722   3.592  -1.166  0.00  0.00    -0.002 C 
ATOM      7  C   LIG    1        4.221   3.245  -1.111  0.00  0.00    +0.008 C 
ATOM      8  C   LIG    1        4.556   2.415   0.131  0.00  0.00    +0.032 C 
ATOM      9  C   LIG    1        2.390   4.459  -2.412  0.00  0.00    +0.006 C 
ATOM     10  C   LIG    1        3.157   5.750  -2.679  0.00  0.00    +0.012 C 
ATOM     11  C   LIG    1        2.295   6.497  -3.710  0.00  0.00    +0.075 C 
ATOM     12  C   LIG    1        0.911   5.827  -3.658  0.00  0.00    +0.139 C 
ATOM     13  O   LIG    1       -0.010   6.014  -4.451  0.00  0.00    -0.297 OA
ATOM     14  C   LIG    1        0.904   4.865  -2.454  0.00  0.00    +0.029 C 
ATOM     15  C   LIG    1        0.424   5.725  -1.238  0.00  0.00    +0.019 C 
ATOM     16  C   LIG    1        0.080   3.565  -2.594  0.00  0.00    +0.015 C 
ATOM     17  C   LIG    1        0.341   2.633  -1.384  0.00  0.00    +0.006 C 
ATOM     18  C   LIG    1        3.723   1.133   0.089  0.00  0.00    -0.056 C 
ATOM     19  C   LIG    1        4.333  -0.072   0.026  0.00  0.00    +0.051 C 
ATOM     20  C   LIG    1        3.656  -1.354  -0.068  0.00  0.00    +0.179 C 
ATOM     21  O   LIG    1        4.250  -2.428  -0.135  0.00  0.00    -0.288 OA
ATOM     22  C   LIG    1        2.208  -1.239  -0.065  0.00  0.00    +0.050 C 
ENDROOT
TORSDOF 0
