REMARK  Name = DB12757
REMARK                            x       y       z     vdW  Elec       q    Type
REMARK                         _______ _______ _______ _____ _____    ______ ____
ROOT
ATOM      1  C   UNK A  0       -3.141  -1.383   1.356  0.00  0.00    +0.044 C 
ATOM      2  C   UNK A  0       -2.039  -0.550   0.737  0.00  0.00    -0.040 A 
ATOM      3  C   UNK A  0       -2.231   0.713   0.158  0.00  0.00    -0.007 A 
ATOM      4  S   UNK A  0       -0.712   1.377  -0.383  0.00  0.00    -0.088 S 
ATOM      5  C   UNK A  0        0.180   0.012   0.191  0.00  0.00    +0.074 A 
ATOM      6  C   UNK A  0       -0.683  -0.913   0.772  0.00  0.00    +0.024 A 
ENDROOT
BRANCH   5   7
ATOM      7  C   UNK A  0        1.615  -0.036   0.028  0.00  0.00    +0.251 C 
ATOM      8  N   GLU A  1        2.197  -1.134   0.554  0.00  0.00    -0.298 N 
ATOM      9  H   GLU A  1        1.617  -1.766   1.085  0.00  0.00    +0.150 HD
ATOM     10  O   UNK A  0        2.232   0.864  -0.547  0.00  0.00    -0.270 OA
BRANCH   8  11
ATOM     11  CA  GLU A  1        3.628  -1.488   0.544  0.00  0.00    +0.182 C 
BRANCH  11  12
ATOM     12  C   GLU A  1        4.161  -1.715  -0.924  0.00  0.00    +0.325 C 
ATOM     13  O   GLU A  1        5.018  -0.881  -1.299  0.00  0.00    -0.249 OA
BRANCH  12  14
ATOM     14  OXT GLU A  1        3.667  -2.682  -1.553  0.00  0.00    -0.479 OA
ATOM     15  HXT GLU A  1        3.027  -3.229  -1.143  0.00  0.00    +0.295 HD
ENDBRANCH  12  14
ENDBRANCH  11  12
BRANCH  11  16
ATOM     16  CB  GLU A  1        3.808  -2.765   1.418  0.00  0.00    +0.045 C 
BRANCH  16  17
ATOM     17  CG  GLU A  1        5.279  -3.200   1.637  0.00  0.00    +0.123 C 
BRANCH  17  18
ATOM     18  CD  GLU A  1        5.489  -4.397   2.584  0.00  0.00    +0.305 C 
ATOM     19  OE1 GLU A  1        6.676  -4.738   2.789  0.00  0.00    -0.251 OA
BRANCH  18  20
ATOM     20  OE2 GLU A  1        4.494  -4.959   3.097  0.00  0.00    -0.481 OA
ATOM     21  HE2 GLU A  1        3.631  -4.652   2.901  0.00  0.00    +0.295 HD
ENDBRANCH  18  20
ENDBRANCH  17  18
ENDBRANCH  16  17
ENDBRANCH  11  16
ENDBRANCH   8  11
ENDBRANCH   5   7
BRANCH   3  22
ATOM     22  C   UNK A  0       -3.517   1.493  -0.031  0.00  0.00    +0.043 C 
BRANCH  22  23
ATOM     23  C   UNK A  0       -3.800   2.439   1.154  0.00  0.00    +0.010 C 
BRANCH  23  24
ATOM     24  C   UNK A  0       -5.136   3.212   1.052  0.00  0.00    +0.011 C 
ATOM     25  C   UNK A  0       -5.150   4.193  -0.158  0.00  0.00    +0.106 C 
ATOM     26  N   UNK A  0       -6.294   5.097  -0.091  0.00  0.00    -0.328 N 
ATOM     27  H   UNK A  0       -6.585   5.482  -0.977  0.00  0.00    +0.147 HD
ATOM     28  C   UNK A  0       -6.975   5.415   1.055  0.00  0.00    +0.131 A 
ATOM     29  N   UNK A  0       -8.010   6.294   0.881  0.00  0.00    -0.201 NA
ATOM     30  C   UNK A  0       -8.715   6.642   1.904  0.00  0.00    +0.195 A 
ATOM     31  N   UNK A  0       -8.425   6.137   3.147  0.00  0.00    -0.295 N 
ATOM     32  H   UNK A  0       -8.989   6.428   3.930  0.00  0.00    +0.172 HD
ATOM     33  C   UNK A  0       -7.422   5.262   3.437  0.00  0.00    +0.258 A 
ATOM     34  O   UNK A  0       -7.225   4.860   4.582  0.00  0.00    -0.267 OA
ATOM     35  C   UNK A  0       -6.641   4.877   2.261  0.00  0.00    +0.057 A 
ATOM     36  C   UNK A  0       -5.477   3.895   2.409  0.00  0.00    +0.049 C 
BRANCH  30  37
ATOM     37  N   UNK A  0       -9.793   7.542   1.780  0.00  0.00    -0.329 N 
ATOM     38  H   UNK A  0      -10.361   7.820   2.566  0.00  0.00    +0.145 HD
ATOM     39  H   UNK A  0      -10.057   7.943   0.892  0.00  0.00    +0.145 HD
ENDBRANCH  30  37
ENDBRANCH  23  24
ENDBRANCH  22  23
ENDBRANCH   3  22
TORSDOF 12
