REMARK  Name = DB12210
REMARK                            x       y       z     vdW  Elec       q    Type
REMARK                         _______ _______ _______ _____ _____    ______ ____
ROOT
ATOM      1  C   LIG    1       -2.011  -3.631  -0.338  0.00  0.00    +0.169 A 
ATOM      2  N   LIG    1       -0.658  -3.548  -0.436  0.00  0.00    -0.142 NA
ATOM      3  N   LIG    1       -0.013  -2.398  -0.221  0.00  0.00    -0.148 NA
ATOM      4  C   LIG    1       -0.688  -1.257   0.098  0.00  0.00    +0.103 A 
ATOM      5  C   LIG    1        0.042  -0.042   0.321  0.00  0.00    +0.013 A 
ATOM      6  C   LIG    1       -0.672   1.109   0.665  0.00  0.00    +0.011 A 
ATOM      7  C   LIG    1       -2.054   1.102   0.788  0.00  0.00    +0.001 A 
ATOM      8  C   LIG    1       -2.776  -0.064   0.571  0.00  0.00    +0.012 A 
ATOM      9  C   LIG    1       -2.112  -1.272   0.222  0.00  0.00    +0.026 A 
ATOM     10  C   LIG    1       -2.795  -2.507  -0.010  0.00  0.00    +0.067 A 
ENDROOT
BRANCH   5  11
ATOM     11  C   LIG    1        1.529   0.040   0.194  0.00  0.00    +0.029 A 
ATOM     12  C   LIG    1        2.337   0.441   1.274  0.00  0.00    +0.128 A 
ATOM     13  C   LIG    1        3.729   0.512   1.096  0.00  0.00    +0.050 A 
ATOM     14  C   LIG    1        4.308   0.187  -0.127  0.00  0.00    +0.049 A 
ATOM     15  C   LIG    1        3.522  -0.215  -1.204  0.00  0.00    +0.121 A 
ATOM     16  C   LIG    1        2.132  -0.281  -1.030  0.00  0.00    +0.057 A 
BRANCH  12  17
ATOM     17  O   LIG    1        1.708   0.736   2.473  0.00  0.00    -0.494 OA
ATOM     18  C   LIG    1        2.485   1.133   3.597  0.00  0.00    +0.277 C 
ENDBRANCH  12  17
BRANCH  15  19
ATOM     19  O   LIG    1        4.182  -0.523  -2.378  0.00  0.00    -0.495 OA
ATOM     20  C   LIG    1        3.426  -0.957  -3.504  0.00  0.00    +0.277 C 
ENDBRANCH  15  19
ENDBRANCH   5  11
BRANCH   1  23
ATOM     21  N   LIG    1       -1.944  -6.048  -0.121  0.00  0.00    -0.310 N 
ATOM     22  H   LIG    1       -1.116  -5.873   0.430  0.00  0.00    +0.149 HD
ATOM     23  C   LIG    1       -2.600  -4.992  -0.642  0.00  0.00    +0.266 C 
ATOM     24  O   LIG    1       -3.621  -5.102  -1.323  0.00  0.00    -0.268 OA
BRANCH  21  25
ATOM     25  C   LIG    1       -2.326  -7.448  -0.292  0.00  0.00    +0.104 C 
BRANCH  25  27
ATOM     26  C   LIG    1       -2.313  -9.514  -1.810  0.00  0.00    +0.005 C 
ATOM     27  C   LIG    1       -1.985  -8.020  -1.681  0.00  0.00    +0.015 C 
ENDBRANCH  25  27
ENDBRANCH  21  25
ENDBRANCH   1  23
BRANCH  10  28
ATOM     28  N   LIG    1       -4.191  -2.588   0.104  0.00  0.00    -0.356 N 
ATOM     29  H   LIG    1       -4.652  -3.462  -0.107  0.00  0.00    +0.142 HD
ATOM     30  H   LIG    1       -4.724  -1.757   0.317  0.00  0.00    +0.142 HD
ENDBRANCH  10  28
TORSDOF 7
