REMARK  Name = DB12912
REMARK                            x       y       z     vdW  Elec       q    Type
REMARK                         _______ _______ _______ _____ _____    ______ ____
ROOT
ATOM      1  C   LIG    1       -0.656   2.636  -0.184  0.00  0.00    +0.045 C 
ATOM      2  C   LIG    1       -1.142   1.194  -0.076  0.00  0.00    -0.036 A 
ATOM      3  C   LIG    1       -0.247   0.103  -0.089  0.00  0.00    +0.030 A 
ATOM      4  C   LIG    1       -0.765  -1.213   0.010  0.00  0.00    +0.079 A 
ATOM      5  C   LIG    1        0.099  -2.477   0.004  0.00  0.00    +0.261 A 
ATOM      6  N   LIG    1       -0.634  -3.618   0.109  0.00  0.00    -0.295 N 
ATOM      7  H   LIG    1       -0.093  -4.469   0.103  0.00  0.00    +0.172 HD
ATOM      8  C   LIG    1       -1.993  -3.730   0.214  0.00  0.00    +0.194 A 
ATOM      9  N   LIG    1       -2.735  -2.685   0.217  0.00  0.00    -0.216 NA
ATOM     10  O   LIG    1        1.323  -2.551  -0.086  0.00  0.00    -0.267 OA
ATOM     11  C   LIG    1       -2.157  -1.406   0.118  0.00  0.00    +0.081 A 
ATOM     12  C   LIG    1       -3.025  -0.318   0.128  0.00  0.00    +0.029 A 
ATOM     13  C   LIG    1       -2.517   0.972   0.032  0.00  0.00    +0.006 A 
ENDROOT
BRANCH   8  14
ATOM     14  N   LIG    1       -2.553  -5.021   0.310  0.00  0.00    -0.329 N 
ATOM     15  H   LIG    1       -1.988  -5.777   0.666  0.00  0.00    +0.145 HD
ATOM     16  H   LIG    1       -3.526  -5.111   0.562  0.00  0.00    +0.145 HD
ENDBRANCH   8  14
BRANCH   3  17
ATOM     17  S   LIG    1        1.505   0.438  -0.227  0.00  0.00    -0.088 S 
BRANCH  17  18
ATOM     18  C   LIG    1        1.865   0.268  -1.959  0.00  0.00    +0.016 A 
ATOM     19  C   LIG    1        0.871   0.024  -2.917  0.00  0.00    +0.035 A 
ATOM     20  C   LIG    1        1.249  -0.095  -4.256  0.00  0.00    +0.112 A 
ATOM     21  N   LIG    1        2.535   0.017  -4.675  0.00  0.00    -0.263 NA
ATOM     22  C   LIG    1        3.486   0.254  -3.736  0.00  0.00    +0.112 A 
ATOM     23  C   LIG    1        3.194   0.386  -2.377  0.00  0.00    +0.035 A 
ENDBRANCH  17  18
ENDBRANCH   3  17
TORSDOF 3
