REMARK  Name = DB12067
REMARK                            x       y       z     vdW  Elec       q    Type
REMARK                         _______ _______ _______ _____ _____    ______ ____
ROOT
ATOM      1  C   LIG    1       -2.033  -1.561  -2.163  0.00  0.00    +0.066 C 
ATOM      2  C   LIG    1       -1.033  -2.486  -1.478  0.00  0.00    +0.051 C 
ATOM      3  N   LIG    1       -1.100  -3.709  -1.876  0.00  0.00    -0.233 NA
ATOM      4  C   LIG    1       -0.272  -4.661  -1.355  0.00  0.00    +0.152 A 
ATOM      5  C   LIG    1       -0.402  -6.025  -1.177  0.00  0.00    +0.069 A 
ATOM      6  C   LIG    1        0.729  -6.402  -0.446  0.00  0.00    +0.136 A 
ATOM      7  N   LIG    1        1.492  -5.379  -0.136  0.00  0.00    -0.177 NA
ATOM      8  N   LIG    1        0.865  -4.309  -0.658  0.00  0.00    -0.235 N 
ATOM      9  C   LIG    1        1.308  -2.891  -0.632  0.00  0.00    +0.176 C 
ATOM     10  C   LIG    1       -0.022  -2.067  -0.459  0.00  0.00    +0.059 C 
ATOM     11  C   LIG    1       -0.283  -1.053   0.435  0.00  0.00    +0.188 C 
ENDROOT
BRANCH   9  12
ATOM     12  C   LIG    1        2.572  -2.584   0.193  0.00  0.00    -0.017 A 
ATOM     13  C   LIG    1        3.555  -1.745  -0.348  0.00  0.00    +0.027 A 
ATOM     14  C   LIG    1        4.754  -1.513   0.327  0.00  0.00    +0.060 A 
ATOM     15 CL   LIG    1        5.926  -0.462  -0.389  0.00  0.00    -0.082 Cl
ATOM     16  C   LIG    1        4.986  -2.128   1.563  0.00  0.00    +0.059 A 
ATOM     17 CL   LIG    1        6.454  -1.869   2.439  0.00  0.00    -0.082 Cl
ATOM     18  C   LIG    1        4.013  -2.964   2.111  0.00  0.00    +0.022 A 
ATOM     19  C   LIG    1        2.812  -3.181   1.437  0.00  0.00    +0.007 A 
ENDBRANCH   9  12
BRANCH  11  20
ATOM     20  N   LIG    1        0.650  -0.612   1.381  0.00  0.00    -0.294 N 
ATOM     21  C   LIG    1        0.625  -0.995   2.811  0.00  0.00    +0.106 C 
ATOM     22  C   LIG    1        1.921  -0.368   3.369  0.00  0.00    +0.029 C 
ATOM     23  C   LIG    1        2.412   0.632   2.329  0.00  0.00    +0.021 C 
ATOM     24  C   LIG    1        1.317   0.688   1.272  0.00  0.00    +0.108 C 
BRANCH  21  25
ATOM     25  C   LIG    1       -0.634  -0.603   3.600  0.00  0.00    -0.027 A 
ATOM     26  C   LIG    1       -0.970   0.741   3.806  0.00  0.00    +0.008 A 
ATOM     27  C   LIG    1       -2.115   1.073   4.526  0.00  0.00    +0.038 A 
ATOM     28  C   LIG    1       -2.922   0.063   5.044  0.00  0.00    +0.123 A 
ATOM     29  F   LIG    1       -4.034   0.386   5.743  0.00  0.00    -0.205 F 
ATOM     30  C   LIG    1       -2.593  -1.276   4.848  0.00  0.00    +0.038 A 
ATOM     31  C   LIG    1       -1.449  -1.608   4.128  0.00  0.00    +0.008 A 
ENDBRANCH  21  25
ENDBRANCH  11  20
BRANCH  11  32
ATOM     32  O   LIG    1       -1.360  -0.344   0.580  0.00  0.00    -0.495 OA
ATOM     33  H   LIG    1       -2.101  -0.499   0.027  0.00  0.00    +0.293 HD
ENDBRANCH  11  32
TORSDOF 4
