REMARK  Name = DB12147
REMARK                            x       y       z     vdW  Elec       q    Type
REMARK                         _______ _______ _______ _____ _____    ______ ____
ROOT
ATOM      1  N   LIG    1        0.880  -0.477   0.199  0.00  0.00    -0.299 N 
ENDROOT
BRANCH   1   2
ATOM      2  C   LIG    1        1.472  -0.527   1.494  0.00  0.00    +0.036 A 
ATOM      3  C   LIG    1        2.735  -1.119   1.651  0.00  0.00    +0.053 A 
ATOM      4  C   LIG    1        3.358  -1.198   2.917  0.00  0.00    +0.092 A 
ATOM      5  N   LIG    1        4.585  -1.781   3.036  0.00  0.00    -0.243 NA
ATOM      6  C   LIG    1        5.146  -1.834   4.274  0.00  0.00    +0.093 A 
ATOM      7  C   LIG    1        4.487  -1.308   5.388  0.00  0.00    +0.139 A 
ATOM      8  N   LIG    1        3.265  -0.725   5.295  0.00  0.00    -0.251 NA
ATOM      9  C   LIG    1        2.690  -0.667   4.060  0.00  0.00    +0.089 A 
ATOM     10  C   LIG    1        1.418  -0.079   3.900  0.00  0.00    +0.032 A 
ATOM     11  C   LIG    1        0.831  -0.021   2.638  0.00  0.00    +0.025 A 
BRANCH   6  12
ATOM     12  C   LIG    1        6.486  -2.485   4.365  0.00  0.00    +0.039 A 
ATOM     13  C   LIG    1        7.242  -3.060   3.351  0.00  0.00    +0.118 A 
ATOM     14  N   LIG    1        8.392  -3.521   3.935  0.00  0.00    -0.274 N 
ATOM     15  C   LIG    1        9.496  -4.224   3.305  0.00  0.00    +0.172 C 
ATOM     16  N   LIG    1        8.423  -3.294   5.252  0.00  0.00    -0.179 NA
ATOM     17  C   LIG    1        7.292  -2.673   5.503  0.00  0.00    +0.144 A 
ENDBRANCH   6  12
ENDBRANCH   1   2
BRANCH   1  18
ATOM     18  C   LIG    1        1.575  -0.546  -1.034  0.00  0.00    +0.041 A 
ATOM     19  C   LIG    1        2.735   0.213  -1.226  0.00  0.00    +0.069 A 
ATOM     20  C   LIG    1        3.429   0.192  -2.435  0.00  0.00    +0.125 A 
ATOM     21  C   LIG    1        2.946  -0.614  -3.478  0.00  0.00    +0.091 A 
ATOM     22  C   LIG    1        1.786  -1.388  -3.312  0.00  0.00    +0.125 A 
ATOM     23  C   LIG    1        1.115  -1.343  -2.090  0.00  0.00    +0.069 A 
BRANCH  20  24
ATOM     24  O   LIG    1        4.558   0.985  -2.514  0.00  0.00    -0.495 OA
ATOM     25  C   LIG    1        5.308   1.009  -3.724  0.00  0.00    +0.277 C 
ENDBRANCH  20  24
BRANCH  22  26
ATOM     26  O   LIG    1        1.245  -2.207  -4.285  0.00  0.00    -0.495 OA
ATOM     27  C   LIG    1        1.878  -2.287  -5.557  0.00  0.00    +0.277 C 
ENDBRANCH  22  26
ENDBRANCH   1  18
BRANCH   1  28
ATOM     28  C   LIG    1       -0.556  -0.144   0.081  0.00  0.00    +0.126 C 
BRANCH  28  29
ATOM     29  C   LIG    1       -0.853   1.369  -0.019  0.00  0.00    +0.100 C 
BRANCH  29  30
ATOM     30  N   LIG    1       -0.417   1.894  -1.310  0.00  0.00    -0.312 NA
ATOM     31  H   LIG    1        0.516   1.569  -1.521  0.00  0.00    +0.122 HD
BRANCH  30  33
ATOM     32  C   LIG    1       -1.946   3.850  -1.426  0.00  0.00    +0.023 C 
ATOM     33  C   LIG    1       -0.488   3.347  -1.425  0.00  0.00    +0.048 C 
ATOM     34  C   LIG    1        0.246   3.742  -2.718  0.00  0.00    +0.023 C 
ENDBRANCH  30  33
ENDBRANCH  29  30
ENDBRANCH  28  29
ENDBRANCH   1  28
TORSDOF 9
