REMARK  Name = DB12163
REMARK                            x       y       z     vdW  Elec       q    Type
REMARK                         _______ _______ _______ _____ _____    ______ ____
ROOT
ATOM      1  O   LIG    1        2.285   0.558  -0.846  0.00  0.00    -0.488 OA
ENDROOT
BRANCH   1   2
ATOM      2  C   LIG    1        3.647   0.794  -0.899  0.00  0.00    +0.124 A 
ATOM      3  C   LIG    1        4.134   1.537  -1.989  0.00  0.00    -0.005 A 
ATOM      4  C   LIG    1        5.502   1.812  -2.094  0.00  0.00    +0.007 A 
ATOM      5  C   LIG    1        6.391   1.347  -1.128  0.00  0.00    +0.000 A 
ATOM      6  C   LIG    1        5.918   0.607  -0.047  0.00  0.00    +0.004 A 
ATOM      7  C   LIG    1        4.557   0.332   0.068  0.00  0.00    +0.046 A 
BRANCH   3   8
ATOM      8  C   LIG    1        3.186   2.038  -3.077  0.00  0.00    +0.043 C 
BRANCH   8   9
ATOM      9  C   LIG    1        2.747   0.941  -4.070  0.00  0.00    +0.040 C 
BRANCH   9  10
ATOM     10  C   LIG    1        3.894   0.375  -4.898  0.00  0.00    -0.044 A 
ATOM     11  C   LIG    1        4.640  -0.708  -4.423  0.00  0.00    +0.049 A 
ATOM     12  C   LIG    1        5.702  -1.233  -5.163  0.00  0.00    +0.120 A 
ATOM     13  C   LIG    1        6.013  -0.652  -6.404  0.00  0.00    +0.045 A 
ATOM     14  C   LIG    1        5.274   0.430  -6.883  0.00  0.00    +0.004 A 
ATOM     15  C   LIG    1        4.218   0.943  -6.133  0.00  0.00    +0.004 A 
BRANCH  12  16
ATOM     16  O   LIG    1        6.380  -2.300  -4.605  0.00  0.00    -0.495 OA
ATOM     17  C   LIG    1        7.463  -2.882  -5.320  0.00  0.00    +0.277 C 
ENDBRANCH  12  16
ENDBRANCH   9  10
ENDBRANCH   8   9
ENDBRANCH   3   8
ENDBRANCH   1   2
BRANCH   1  18
ATOM     18  C   LIG    1        1.721  -0.103   0.284  0.00  0.00    +0.271 C 
BRANCH  18  19
ATOM     19  C   LIG    1        0.181  -0.099   0.169  0.00  0.00    +0.197 C 
BRANCH  19  20
ATOM     20  C   LIG    1       -0.392   1.329   0.008  0.00  0.00    -0.031 C 
BRANCH  20  22
ATOM     21  C   LIG    1       -2.448   2.734  -0.538  0.00  0.00    -0.096 C 
ATOM     22  N   LIG    1       -1.928   1.327  -0.184  0.00  0.00    +0.378 N 
ATOM     23  H   LIG    1       -2.121   0.733  -0.979  0.00  0.00    -0.082 HD
ATOM     24  C   LIG    1       -2.695   0.743   1.021  0.00  0.00    -0.096 C 
ENDBRANCH  20  22
ENDBRANCH  19  20
BRANCH  19  25
ATOM     25  O   LIG    1       -0.238  -0.910  -0.931  0.00  0.00    -0.460 OA
BRANCH  25  26
ATOM     26  C   LIG    1       -0.401  -2.248  -0.805  0.00  0.00    +0.308 C 
ATOM     27  O   LIG    1       -0.289  -2.898   0.235  0.00  0.00    -0.251 OA
BRANCH  26  28
ATOM     28  C   LIG    1       -0.769  -2.922  -2.132  0.00  0.00    +0.132 C 
BRANCH  28  29
ATOM     29  C   LIG    1        0.371  -2.936  -3.189  0.00  0.00    +0.131 C 
BRANCH  29  30
ATOM     30  C   LIG    1        1.625  -3.759  -2.803  0.00  0.00    +0.305 C 
ATOM     31  O   LIG    1        2.723  -3.349  -3.239  0.00  0.00    -0.251 OA
BRANCH  30  32
ATOM     32  O   LIG    1        1.481  -4.799  -2.120  0.00  0.00    -0.481 OA
ATOM     33  H   LIG    1        0.629  -5.051  -1.824  0.00  0.00    +0.295 HD
ENDBRANCH  30  32
ENDBRANCH  29  30
ENDBRANCH  28  29
ENDBRANCH  26  28
ENDBRANCH  25  26
ENDBRANCH  19  25
ENDBRANCH  18  19
ENDBRANCH   1  18
TORSDOF 15
