REMARK  Name = DB12135
REMARK                            x       y       z     vdW  Elec       q    Type
REMARK                         _______ _______ _______ _____ _____    ______ ____
ROOT
ATOM      1  C   LIG    1        1.751   0.070   0.308  0.00  0.00    +0.079 A 
ATOM      2  C   LIG    1        2.458  -1.022  -0.226  0.00  0.00    +0.166 A 
ATOM      3  C   LIG    1        3.868  -1.052  -0.190  0.00  0.00    +0.167 A 
ATOM      4  C   LIG    1        4.556   0.010   0.437  0.00  0.00    +0.071 A 
ATOM      5 CL   LIG    1        6.275   0.070   0.619  0.00  0.00    -0.081 Cl
ATOM      6  C   LIG    1        3.844   1.081   0.974  0.00  0.00    +0.024 A 
ATOM      7  C   LIG    1        2.457   1.118   0.910  0.00  0.00    +0.028 A 
ENDROOT
BRANCH   1  11
ATOM      8  N   LIG    1       -1.759   0.751   0.069  0.00  0.00    -0.268 N 
ATOM      9  H   LIG    1       -1.947  -0.237  -0.011  0.00  0.00    +0.156 HD
ATOM     10  C   LIG    1       -0.466   1.126   0.036  0.00  0.00    +0.308 C 
ATOM     11  N   LIG    1        0.342   0.068   0.251  0.00  0.00    -0.266 N 
ATOM     12  H   LIG    1       -0.088  -0.845   0.262  0.00  0.00    +0.156 HD
ATOM     13  O   LIG    1       -0.077   2.278  -0.174  0.00  0.00    -0.252 OA
BRANCH   8  20
ATOM     14  C   LIG    1       -4.866   2.003  -1.440  0.00  0.00    +0.005 A 
ATOM     15  C   LIG    1       -5.128   3.143  -0.684  0.00  0.00    +0.040 A 
ATOM     16  C   LIG    1       -4.275   3.502   0.359  0.00  0.00    +0.143 A 
ATOM     17  F   LIG    1       -4.564   4.598   1.100  0.00  0.00    -0.204 F 
ATOM     18  C   LIG    1       -3.142   2.731   0.645  0.00  0.00    +0.097 A 
ATOM     19 CL   LIG    1       -2.165   3.174   2.009  0.00  0.00    -0.079 Cl
ATOM     20  C   LIG    1       -2.856   1.600  -0.149  0.00  0.00    +0.056 A 
ATOM     21  C   LIG    1       -3.741   1.228  -1.166  0.00  0.00    +0.025 A 
ENDBRANCH   8  20
ENDBRANCH   1  11
BRANCH   3  22
ATOM     22  S   LIG    1        4.716  -2.474  -0.941  0.00  0.00    +0.066 S 
ATOM     23  O   LIG    1        4.274  -3.654  -0.189  0.00  0.00    -0.153 OA
ATOM     24  O   LIG    1        6.148  -2.195  -1.087  0.00  0.00    -0.153 OA
BRANCH  22  25
ATOM     25  N   LIG    1        4.058  -2.590  -2.583  0.00  0.00    -0.180 NA
ATOM     26  C   LIG    1        4.436  -1.499  -3.510  0.00  0.00    +0.090 C 
ATOM     27  C   LIG    1        3.455  -1.436  -4.700  0.00  0.00    -0.065 C 
ATOM     28  N   LIG    1        3.333  -2.822  -5.367  0.00  0.00    +0.381 N 
ATOM     29  H   LIG    1        2.620  -2.794  -6.083  0.00  0.00    -0.086 HD
ATOM     30  H   LIG    1        4.206  -3.025  -5.834  0.00  0.00    -0.086 HD
ATOM     31  C   LIG    1        3.034  -3.973  -4.381  0.00  0.00    -0.065 C 
ATOM     32  C   LIG    1        4.022  -3.939  -3.193  0.00  0.00    +0.090 C 
ENDBRANCH  22  25
ENDBRANCH   3  22
BRANCH   2  33
ATOM     33  O   LIG    1        1.755  -2.066  -0.784  0.00  0.00    -0.503 OA
ATOM     34  H   LIG    1        2.321  -2.787  -1.072  0.00  0.00    +0.292 HD
ENDBRANCH   2  33
TORSDOF 5
