REMARK  Name = DB12955
REMARK                            x       y       z     vdW  Elec       q    Type
REMARK                         _______ _______ _______ _____ _____    ______ ____
ROOT
ATOM      1  C   LIG    1        1.656   0.086  -0.228  0.00  0.00    +0.248 C 
ATOM      2  N   LIG    1        2.348  -0.870   0.419  0.00  0.00    -0.300 N 
ATOM      3  H   LIG    1        1.841  -1.565   0.947  0.00  0.00    +0.150 HD
ATOM      4  O   LIG    1        2.179   0.973  -0.905  0.00  0.00    -0.270 OA
ENDROOT
BRANCH   1   7
ATOM      5  C   LIG    1       -1.879  -1.344  -0.140  0.00  0.00    +0.034 A 
ATOM      6  C   LIG    1       -0.485  -1.230  -0.246  0.00  0.00    +0.040 A 
ATOM      7  C   LIG    1        0.156   0.008  -0.075  0.00  0.00    +0.080 A 
ATOM      8  C   LIG    1       -0.608   1.158   0.209  0.00  0.00    +0.132 A 
ATOM      9  C   LIG    1       -2.003   1.030   0.319  0.00  0.00    +0.048 A 
ATOM     10  C   LIG    1       -2.626  -0.202   0.146  0.00  0.00    +0.027 A 
BRANCH   5  12
ATOM     11  C   LIG    1       -2.194  -3.781  -0.616  0.00  0.00    +0.238 C 
ATOM     12  N   LIG    1       -2.613  -2.534  -0.307  0.00  0.00    -0.284 N 
ATOM     13  H   LIG    1       -3.609  -2.422  -0.188  0.00  0.00    +0.155 HD
ATOM     14  O   LIG    1       -1.028  -4.136  -0.796  0.00  0.00    -0.273 OA
BRANCH  11  15
ATOM     15  C   LIG    1       -3.324  -4.835  -0.699  0.00  0.00    +0.159 C 
BRANCH  15  17
ATOM     16  C   LIG    1       -3.152  -5.546  -3.105  0.00  0.00    +0.248 C 
ATOM     17  N   LIG    1       -3.136  -5.809  -1.784  0.00  0.00    -0.300 N 
ATOM     18  H   LIG    1       -2.985  -6.761  -1.486  0.00  0.00    +0.150 HD
ATOM     19  O   LIG    1       -3.305  -4.415  -3.569  0.00  0.00    -0.270 OA
BRANCH  16  21
ATOM     20  C   LIG    1       -3.760  -6.858  -5.203  0.00  0.00    +0.132 A 
ATOM     21  C   LIG    1       -3.014  -6.754  -4.008  0.00  0.00    +0.080 A 
ATOM     22  C   LIG    1       -2.132  -7.790  -3.654  0.00  0.00    +0.040 A 
ATOM     23  C   LIG    1       -2.010  -8.938  -4.448  0.00  0.00    +0.034 A 
ATOM     24  C   LIG    1       -2.749  -9.034  -5.624  0.00  0.00    +0.027 A 
ATOM     25  C   LIG    1       -3.613  -8.010  -5.995  0.00  0.00    +0.048 A 
BRANCH  23  26
ATOM     26  N   LIG    1       -1.159 -10.015  -4.149  0.00  0.00    -0.287 N 
ATOM     27  H   LIG    1       -0.872 -10.563  -4.947  0.00  0.00    +0.155 HD
ATOM     28  C   LIG    1       -0.795 -10.464  -2.926  0.00  0.00    +0.203 C 
ATOM     29  O   LIG    1       -1.142  -9.965  -1.852  0.00  0.00    -0.277 OA
BRANCH  28  30
ATOM     30  C   LIG    1        0.075 -11.741  -2.916  0.00  0.00    +0.013 C 
BRANCH  30  31
ATOM     31  N   LIG    1        1.486 -11.235  -3.006  0.00  0.00    +0.386 N 
ATOM     32  H   LIG    1        1.690 -10.684  -2.183  0.00  0.00    -0.089 HD
ATOM     33  H   LIG    1        2.116 -12.022  -3.056  0.00  0.00    -0.089 HD
ATOM     34  H   LIG    1        1.581 -10.669  -3.838  0.00  0.00    -0.089 HD
ENDBRANCH  30  31
BRANCH  30  35
ATOM     35  C   LIG    1       -0.178 -12.671  -1.699  0.00  0.00    -0.007 C 
BRANCH  35  36
ATOM     36  C   LIG    1        0.555 -14.026  -1.754  0.00  0.00    -0.003 C 
BRANCH  36  37
ATOM     37  C   LIG    1        0.148 -14.953  -0.593  0.00  0.00    -0.020 C 
BRANCH  37  38
ATOM     38  C   LIG    1        0.757 -16.368  -0.654  0.00  0.00    -0.086 C 
BRANCH  38  39
ATOM     39  N   LIG    1        2.211 -16.381  -0.402  0.00  0.00    +0.378 N 
ATOM     40  H   LIG    1        2.685 -15.834  -1.105  0.00  0.00    -0.090 HD
ATOM     41  H   LIG    1        2.399 -15.994   0.512  0.00  0.00    -0.090 HD
ATOM     42  H   LIG    1        2.548 -17.333  -0.435  0.00  0.00    -0.090 HD
ENDBRANCH  38  39
ENDBRANCH  37  38
ENDBRANCH  36  37
ENDBRANCH  35  36
ENDBRANCH  30  35
ENDBRANCH  28  30
ENDBRANCH  23  26
BRANCH  20  44
ATOM     43  C   LIG    1       -5.343  -5.881  -6.771  0.00  0.00    +0.277 C 
ATOM     44  O   LIG    1       -4.626  -5.830  -5.542  0.00  0.00    -0.494 OA
ENDBRANCH  20  44
ENDBRANCH  16  21
ENDBRANCH  15  17
BRANCH  15  45
ATOM     45  C   LIG    1       -3.470  -5.597   0.642  0.00  0.00    +0.032 C 
BRANCH  45  46
ATOM     46  C   LIG    1       -4.761  -6.433   0.739  0.00  0.00    +0.000 C 
BRANCH  46  47
ATOM     47  C   LIG    1       -4.896  -7.160   2.089  0.00  0.00    -0.019 C 
BRANCH  47  48
ATOM     48  C   LIG    1       -6.187  -7.987   2.232  0.00  0.00    -0.086 C 
BRANCH  48  49
ATOM     49  N   LIG    1       -6.209  -9.167   1.346  0.00  0.00    +0.378 N 
ATOM     50  H   LIG    1       -6.152  -8.869   0.383  0.00  0.00    -0.090 HD
ATOM     51  H   LIG    1       -5.423  -9.765   1.560  0.00  0.00    -0.090 HD
ATOM     52  H   LIG    1       -7.068  -9.680   1.487  0.00  0.00    -0.090 HD
ENDBRANCH  48  49
ENDBRANCH  47  48
ENDBRANCH  46  47
ENDBRANCH  45  46
ENDBRANCH  15  45
ENDBRANCH  11  15
ENDBRANCH   5  12
BRANCH   8  53
ATOM     53  O   LIG    1        0.052   2.365   0.384  0.00  0.00    -0.494 OA
ATOM     54  C   LIG    1       -0.692   3.547   0.665  0.00  0.00    +0.277 C 
ENDBRANCH   8  53
ENDBRANCH   1   7
BRANCH   2  55
ATOM     55  C   LIG    1        3.801  -1.053   0.362  0.00  0.00    +0.159 C 
BRANCH  55  56
ATOM     56  C   LIG    1        4.120  -2.083  -0.743  0.00  0.00    +0.238 C 
ATOM     57  N   LIG    1        4.979  -1.661  -1.699  0.00  0.00    -0.284 N 
ATOM     58  H   LIG    1        5.296  -0.706  -1.628  0.00  0.00    +0.155 HD
ATOM     59  O   LIG    1        3.587  -3.194  -0.687  0.00  0.00    -0.273 OA
BRANCH  57  60
ATOM     60  C   LIG    1        5.420  -2.345  -2.848  0.00  0.00    +0.034 A 
ATOM     61  C   LIG    1        5.326  -3.731  -3.033  0.00  0.00    +0.040 A 
ATOM     62  C   LIG    1        5.760  -4.342  -4.220  0.00  0.00    +0.080 A 
ATOM     63  C   LIG    1        6.330  -3.550  -5.239  0.00  0.00    +0.132 A 
ATOM     64  C   LIG    1        6.446  -2.164  -5.032  0.00  0.00    +0.048 A 
ATOM     65  C   LIG    1        5.997  -1.572  -3.854  0.00  0.00    +0.027 A 
BRANCH  62  66
ATOM     66  C   LIG    1        5.622  -5.840  -4.368  0.00  0.00    +0.248 C 
ATOM     67  N   LIG    1        4.481  -6.359  -3.876  0.00  0.00    -0.300 N 
ATOM     68  H   LIG    1        3.787  -5.728  -3.501  0.00  0.00    +0.150 HD
ATOM     69  O   LIG    1        6.510  -6.517  -4.889  0.00  0.00    -0.270 OA
BRANCH  67  70
ATOM     70  C   LIG    1        4.117  -7.778  -3.840  0.00  0.00    +0.159 C 
BRANCH  70  71
ATOM     71  C   LIG    1        2.773  -7.975  -4.570  0.00  0.00    +0.238 C 
ATOM     72  N   LIG    1        2.747  -8.964  -5.488  0.00  0.00    -0.284 N 
ATOM     73  H   LIG    1        3.570  -9.543  -5.577  0.00  0.00    +0.155 HD
ATOM     74  O   LIG    1        1.810  -7.263  -4.271  0.00  0.00    -0.273 OA
BRANCH  72  75
ATOM     75  C   LIG    1        1.683  -9.281  -6.346  0.00  0.00    +0.034 A 
ATOM     76  C   LIG    1        0.887  -8.304  -6.958  0.00  0.00    +0.040 A 
ATOM     77  C   LIG    1       -0.130  -8.652  -7.863  0.00  0.00    +0.080 A 
ATOM     78  C   LIG    1       -0.367 -10.019  -8.136  0.00  0.00    +0.132 A 
ATOM     79  C   LIG    1        0.443 -10.988  -7.516  0.00  0.00    +0.048 A 
ATOM     80  C   LIG    1        1.464 -10.623  -6.645  0.00  0.00    +0.027 A 
BRANCH  77  81
ATOM     81  C   LIG    1       -0.961  -7.560  -8.511  0.00  0.00    +0.245 C 
ATOM     82  N   LIG    1       -0.362  -6.381  -8.708  0.00  0.00    -0.325 N 
ATOM     83  H   LIG    1       -0.872  -5.619  -9.130  0.00  0.00    +0.145 HD
ATOM     84  H   LIG    1        0.603  -6.246  -8.442  0.00  0.00    +0.145 HD
ATOM     85  O   LIG    1       -2.132  -7.740  -8.841  0.00  0.00    -0.270 OA
ENDBRANCH  77  81
BRANCH  78  86
ATOM     86  O   LIG    1       -1.380 -10.356  -9.021  0.00  0.00    -0.494 OA
ATOM     87  C   LIG    1       -1.674 -11.724  -9.284  0.00  0.00    +0.277 C 
ENDBRANCH  78  86
ENDBRANCH  72  75
ENDBRANCH  70  71
BRANCH  70  88
ATOM     88  C   LIG    1        4.030  -8.237  -2.361  0.00  0.00    +0.032 C 
BRANCH  88  89
ATOM     89  C   LIG    1        5.387  -8.234  -1.632  0.00  0.00    +0.000 C 
BRANCH  89  90
ATOM     90  C   LIG    1        5.282  -8.679  -0.166  0.00  0.00    -0.019 C 
BRANCH  90  91
ATOM     91  C   LIG    1        6.640  -8.627   0.554  0.00  0.00    -0.086 C 
BRANCH  91  92
ATOM     92  N   LIG    1        6.529  -9.027   1.969  0.00  0.00    +0.378 N 
ATOM     93  H   LIG    1        5.893  -8.406   2.447  0.00  0.00    -0.090 HD
ATOM     94  H   LIG    1        6.184  -9.974   2.028  0.00  0.00    -0.090 HD
ATOM     95  H   LIG    1        7.439  -8.975   2.406  0.00  0.00    -0.090 HD
ENDBRANCH  91  92
ENDBRANCH  90  91
ENDBRANCH  89  90
ENDBRANCH  88  89
ENDBRANCH  70  88
ENDBRANCH  67  70
ENDBRANCH  62  66
BRANCH  63  96
ATOM     96  O   LIG    1        6.742  -4.170  -6.409  0.00  0.00    -0.494 OA
ATOM     97  C   LIG    1        7.313  -3.398  -7.459  0.00  0.00    +0.277 C 
ENDBRANCH  63  96
ENDBRANCH  57  60
ENDBRANCH  55  56
BRANCH  55  98
ATOM     98  C   LIG    1        4.290  -1.509   1.760  0.00  0.00    +0.032 C 
BRANCH  98  99
ATOM     99  C   LIG    1        5.824  -1.511   1.921  0.00  0.00    +0.000 C 
BRANCH  99 100
ATOM    100  C   LIG    1        6.310  -1.962   3.310  0.00  0.00    -0.019 C 
BRANCH 100 101
ATOM    101  C   LIG    1        5.950  -0.985   4.445  0.00  0.00    -0.086 C 
BRANCH 101 102
ATOM    102  N   LIG    1        6.499  -1.424   5.741  0.00  0.00    +0.378 N 
ATOM    103  H   LIG    1        6.121  -2.330   5.980  0.00  0.00    -0.090 HD
ATOM    104  H   LIG    1        7.505  -1.485   5.681  0.00  0.00    -0.090 HD
ATOM    105  H   LIG    1        6.246  -0.758   6.457  0.00  0.00    -0.090 HD
ENDBRANCH 101 102
ENDBRANCH 100 101
ENDBRANCH  99 100
ENDBRANCH  98  99
ENDBRANCH  55  98
ENDBRANCH   2  55
TORSDOF 40
