REMARK  Name = DB12812
REMARK                            x       y       z     vdW  Elec       q    Type
REMARK                         _______ _______ _______ _____ _____    ______ ____
ROOT
ATOM      1  C   LIG    1       -7.184  -0.308   0.030  0.00  0.00    -0.019 A 
ATOM      2  C   LIG    1       -6.419  -1.479   0.056  0.00  0.00    +0.021 A 
ATOM      3  C   LIG    1       -5.019  -1.428   0.034  0.00  0.00    +0.068 A 
ATOM      4  C   LIG    1       -4.223  -2.696   0.059  0.00  0.00    +0.345 A 
ATOM      5  O   LIG    1       -2.858  -2.619   0.034  0.00  0.00    -0.422 OA
ATOM      6  C   LIG    1       -2.203  -1.399   0.004  0.00  0.00    +0.143 A 
ATOM      7  C   LIG    1       -0.811  -1.460   0.003  0.00  0.00    +0.096 A 
ATOM      8  C   LIG    1       -0.044  -0.285  -0.020  0.00  0.00    +0.166 A 
ATOM      9  C   LIG    1       -0.692   0.958  -0.046  0.00  0.00    +0.162 A 
ATOM     10  C   LIG    1       -2.097   1.008  -0.050  0.00  0.00    +0.061 A 
ATOM     11  C   LIG    1       -2.869  -0.162  -0.023  0.00  0.00    +0.029 A 
ATOM     12  O   LIG    1       -4.704  -3.828   0.098  0.00  0.00    -0.245 OA
ATOM     13  C   LIG    1       -4.367  -0.180  -0.014  0.00  0.00    -0.000 A 
ATOM     14  C   LIG    1       -5.143   0.989  -0.049  0.00  0.00    +0.010 A 
ATOM     15  C   LIG    1       -6.534   0.925  -0.028  0.00  0.00    +0.007 A 
ENDROOT
BRANCH   1  17
ATOM     16  C   LIG    1       -9.287  -0.845  -1.290  0.00  0.00    +0.043 C 
ATOM     17  C   LIG    1       -8.710  -0.368   0.053  0.00  0.00    +0.141 C 
BRANCH  17  18
ATOM     18  O   LIG    1       -9.207  -1.206   1.079  0.00  0.00    -0.387 OA
ATOM     19  H   LIG    1       -8.960  -0.830   1.927  0.00  0.00    +0.210 HD
ENDBRANCH  17  18
ENDBRANCH   1  17
BRANCH   9  20
ATOM     20  O   LIG    1        0.116   2.083  -0.065  0.00  0.00    -0.491 OA
ATOM     21  C   LIG    1       -0.478   3.377  -0.036  0.00  0.00    +0.277 C 
ENDBRANCH   9  20
BRANCH   8  22
ATOM     22  O   LIG    1        1.340  -0.273  -0.015  0.00  0.00    -0.484 OA
BRANCH  22  23
ATOM     23  C   LIG    1        2.059  -1.503   0.020  0.00  0.00    +0.264 C 
BRANCH  23  24
ATOM     24  C   LIG    1        3.547  -1.200   0.041  0.00  0.00    -0.010 A 
ATOM     25  C   LIG    1        4.228  -1.126   1.257  0.00  0.00    +0.010 A 
ATOM     26  C   LIG    1        5.590  -0.840   1.277  0.00  0.00    +0.046 A 
ATOM     27  C   LIG    1        6.285  -0.623   0.076  0.00  0.00    +0.120 A 
ATOM     28  C   LIG    1        5.594  -0.698  -1.135  0.00  0.00    +0.046 A 
ATOM     29  C   LIG    1        4.231  -0.984  -1.156  0.00  0.00    +0.010 A 
BRANCH  27  30
ATOM     30  O   LIG    1        7.633  -0.331  -0.002  0.00  0.00    -0.495 OA
ATOM     31  C   LIG    1        8.393  -0.234   1.198  0.00  0.00    +0.277 C 
ENDBRANCH  27  30
ENDBRANCH  23  24
ENDBRANCH  22  23
ENDBRANCH   8  22
TORSDOF 7
