REMARK  Name = DB12833
REMARK                            x       y       z     vdW  Elec       q    Type
REMARK                         _______ _______ _______ _____ _____    ______ ____
ROOT
ATOM      1  C   LIG    1        0.299   0.073   0.253  0.00  0.00    -0.017 C 
ENDROOT
BRANCH   1   2
ATOM      2  C   LIG    1       -0.195   1.515   0.466  0.00  0.00    -0.079 C 
BRANCH   2   3
ATOM      3  N   LIG    1       -1.738   1.599   0.374  0.00  0.00    +0.382 N 
ATOM      4  H   LIG    1       -2.047   1.142  -0.472  0.00  0.00    -0.082 HD
ATOM      5  C   LIG    1       -2.437   0.934   1.583  0.00  0.00    -0.060 C 
ATOM      6  C   LIG    1       -3.967   1.094   1.426  0.00  0.00    +0.089 C 
ATOM      7  N   LIG    1       -4.386   2.510   1.377  0.00  0.00    -0.303 N 
ATOM      8  C   LIG    1       -3.727   3.127   0.208  0.00  0.00    +0.089 C 
ATOM      9  C   LIG    1       -2.186   3.075   0.308  0.00  0.00    -0.060 C 
BRANCH   7  10
ATOM     10  C   LIG    1       -4.759   3.235   2.514  0.00  0.00    +0.218 A 
ATOM     11  N   LIG    1       -4.849   4.592   2.405  0.00  0.00    -0.223 NA
ATOM     12  C   LIG    1       -5.276   5.277   3.498  0.00  0.00    +0.116 A 
ATOM     13  C   LIG    1       -5.628   4.641   4.688  0.00  0.00    +0.039 A 
ATOM     14  C   LIG    1       -5.523   3.250   4.710  0.00  0.00    +0.116 A 
ATOM     15  N   LIG    1       -5.100   2.535   3.635  0.00  0.00    -0.223 NA
ENDBRANCH   7  10
ENDBRANCH   2   3
ENDBRANCH   1   2
BRANCH   1  16
ATOM     16  C   LIG    1        1.833  -0.015   0.192  0.00  0.00    +0.018 C 
BRANCH  16  17
ATOM     17  C   LIG    1        2.330  -1.453  -0.046  0.00  0.00    +0.116 C 
BRANCH  17  18
ATOM     18  N   LIG    1        3.795  -1.563  -0.078  0.00  0.00    -0.242 N 
ATOM     19  C   LIG    1        4.513  -1.354  -1.212  0.00  0.00    +0.226 C 
ATOM     20  O   LIG    1        4.088  -1.069  -2.332  0.00  0.00    -0.275 OA
ATOM     21  C   LIG    1        5.982  -1.581  -0.870  0.00  0.00    +0.091 C 
ATOM     22  C   LIG    1        5.990  -1.922   0.605  0.00  0.00    +0.091 C 
ATOM     23  C   LIG    1        6.875  -0.797   1.220  0.00  0.00    +0.002 C 
ATOM     24  C   LIG    1        6.541   0.431   0.370  0.00  0.00    +0.008 C 
ATOM     25  C   LIG    1        8.348  -1.034   0.812  0.00  0.00    +0.004 C 
ATOM     26  C   LIG    1        8.338  -0.682  -0.694  0.00  0.00    +0.004 C 
ATOM     27  C   LIG    1        6.861  -0.295  -0.938  0.00  0.00    +0.002 C 
ATOM     28  C   LIG    1        4.524  -1.867   1.026  0.00  0.00    +0.226 C 
ATOM     29  O   LIG    1        4.112  -2.099   2.163  0.00  0.00    -0.275 OA
ENDBRANCH  17  18
ENDBRANCH  16  17
ENDBRANCH   1  16
TORSDOF 6
