REMARK  Name = DB12677
REMARK                            x       y       z     vdW  Elec       q    Type
REMARK                         _______ _______ _______ _____ _____    ______ ____
ROOT
ATOM      1  C   LIG    1        0.967  -0.327  -0.288  0.00  0.00    +0.147 C 
ENDROOT
BRANCH   1   2
ATOM      2  O   LIG    1        1.420   0.552   0.747  0.00  0.00    -0.377 OA
ATOM      3  C   LIG    1        1.347   0.023   2.065  0.00  0.00    +0.194 C 
ENDBRANCH   1   2
BRANCH   1   4
ATOM      4  C   LIG    1       -0.588  -0.199  -0.476  0.00  0.00    +0.108 C 
BRANCH   4   5
ATOM      5  N   LIG    1       -1.098   1.196  -0.319  0.00  0.00    -0.297 N 
ATOM      6  C   LIG    1       -0.979   2.161  -1.277  0.00  0.00    +0.236 C 
ATOM      7  O   LIG    1       -0.559   1.928  -2.413  0.00  0.00    -0.274 OA
ATOM      8  C   LIG    1       -1.706   1.445   0.998  0.00  0.00    +0.132 C 
BRANCH   6   9
ATOM      9  C   LIG    1       -1.391   3.631  -0.956  0.00  0.00    +0.161 C 
BRANCH   9  10
ATOM     10  N   LIG    1       -0.541   4.598  -1.666  0.00  0.00    -0.305 N 
ATOM     11  H   LIG    1       -0.843   4.842  -2.599  0.00  0.00    +0.149 HD
ATOM     12  C   LIG    1        0.586   5.144  -1.172  0.00  0.00    +0.200 C 
ATOM     13  O   LIG    1        1.017   4.898  -0.045  0.00  0.00    -0.278 OA
BRANCH  12  14
ATOM     14  C   LIG    1        1.310   6.157  -2.113  0.00  0.00    +0.021 C 
BRANCH  14  15
ATOM     15  N   LIG    1        1.949   7.295  -1.311  0.00  0.00    +0.384 N 
ATOM     16  H   LIG    1        2.273   7.904  -2.049  0.00  0.00    -0.082 HD
ATOM     17  C   LIG    1        0.947   8.151  -0.504  0.00  0.00    -0.096 C 
ATOM     18  C   LIG    1        3.218   6.998  -0.478  0.00  0.00    -0.096 C 
ENDBRANCH  14  15
BRANCH  14  19
ATOM     19  C   LIG    1        2.276   5.441  -3.127  0.00  0.00    -0.022 C 
ATOM     20  C   LIG    1        1.761   4.129  -3.757  0.00  0.00    +0.006 C 
ATOM     21  C   LIG    1        2.705   6.403  -4.251  0.00  0.00    +0.006 C 
ENDBRANCH  14  19
ENDBRANCH  12  14
ENDBRANCH   9  10
BRANCH   9  22
ATOM     22  C   LIG    1       -2.901   3.827  -1.317  0.00  0.00    +0.012 C 
ATOM     23  C   LIG    1       -3.423   5.189  -0.822  0.00  0.00    +0.009 C 
ATOM     24  C   LIG    1       -3.257   3.637  -2.809  0.00  0.00    +0.009 C 
ENDBRANCH   9  22
ENDBRANCH   6   9
ENDBRANCH   4   5
BRANCH   4  25
ATOM     25  C   LIG    1       -1.209  -1.016  -1.665  0.00  0.00    +0.009 C 
ATOM     26  C   LIG    1       -0.785  -2.504  -1.630  0.00  0.00    +0.009 C 
BRANCH  25  28
ATOM     27  C   LIG    1       -3.413  -1.498  -2.980  0.00  0.00    +0.004 C 
ATOM     28  C   LIG    1       -2.758  -0.883  -1.732  0.00  0.00    +0.002 C 
ENDBRANCH  25  28
ENDBRANCH   4  25
ENDBRANCH   1   4
BRANCH   1  29
ATOM     29  C   LIG    1        1.819  -0.061  -1.561  0.00  0.00    +0.129 C 
BRANCH  29  30
ATOM     30  C   LIG    1        3.351  -0.106  -1.372  0.00  0.00    +0.218 C 
ATOM     31  N   LIG    1        4.128   0.447  -2.338  0.00  0.00    -0.296 N 
ATOM     32  C   LIG    1        5.589   0.634  -2.221  0.00  0.00    +0.105 C 
ATOM     33  C   LIG    1        6.029   0.957  -3.661  0.00  0.00    +0.026 C 
ATOM     34  C   LIG    1        4.874   0.512  -4.537  0.00  0.00    +0.021 C 
ATOM     35  C   LIG    1        3.641   0.782  -3.681  0.00  0.00    +0.108 C 
ATOM     36  O   LIG    1        3.824  -0.596  -0.345  0.00  0.00    -0.276 OA
BRANCH  32  37
ATOM     37  C   LIG    1        6.052   1.716  -1.185  0.00  0.00    +0.150 C 
BRANCH  37  38
ATOM     38  O   LIG    1        5.990   1.260   0.168  0.00  0.00    -0.377 OA
ATOM     39  C   LIG    1        6.949   0.281   0.548  0.00  0.00    +0.194 C 
ENDBRANCH  37  38
BRANCH  37  40
ATOM     40  C   LIG    1        5.296   3.091  -1.279  0.00  0.00    +0.102 C 
ATOM     41  C   LIG    1        4.007   3.191  -0.423  0.00  0.00    +0.020 C 
BRANCH  40  42
ATOM     42  C   LIG    1        6.234   4.277  -0.971  0.00  0.00    +0.218 C 
ATOM     43  N   LIG    1        6.660   4.996  -2.025  0.00  0.00    -0.315 N 
ATOM     44  H   LIG    1        6.377   4.713  -2.952  0.00  0.00    +0.149 HD
ATOM     45  O   LIG    1        6.556   4.529   0.192  0.00  0.00    -0.275 OA
BRANCH  43  46
ATOM     46  C   LIG    1        7.525   6.170  -1.942  0.00  0.00    +0.109 C 
BRANCH  46  47
ATOM     47  C   LIG    1        6.775   7.466  -1.577  0.00  0.00    +0.054 C 
BRANCH  47  48
ATOM     48  C   LIG    1        7.641   8.710  -1.705  0.00  0.00    -0.046 A 
ATOM     49  C   LIG    1        7.770   9.345  -2.943  0.00  0.00    +0.004 A 
ATOM     50  C   LIG    1        8.561  10.484  -3.062  0.00  0.00    +0.000 A 
ATOM     51  C   LIG    1        9.221  10.985  -1.942  0.00  0.00    +0.000 A 
ATOM     52  C   LIG    1        9.098  10.356  -0.704  0.00  0.00    +0.000 A 
ATOM     53  C   LIG    1        8.308   9.216  -0.585  0.00  0.00    +0.004 A 
ENDBRANCH  47  48
ENDBRANCH  46  47
ENDBRANCH  43  46
ENDBRANCH  40  42
ENDBRANCH  37  40
ENDBRANCH  32  37
ENDBRANCH  29  30
ENDBRANCH   1  29
TORSDOF 20
