REMARK  Name = DB12348
REMARK                            x       y       z     vdW  Elec       q    Type
REMARK                         _______ _______ _______ _____ _____    ______ ____
ROOT
ATOM      1  C   LIG    1        0.028  -0.015   0.000  0.00  0.00    +0.180 A 
ATOM      2  S   LIG    1       -0.881   1.465   0.000  0.00  0.00    -0.025 S 
ATOM      3  C   LIG    1       -2.317   0.482   0.000  0.00  0.00    +0.157 A 
ATOM      4  N   LIG    1       -2.069  -0.806   0.000  0.00  0.00    -0.133 NA
ATOM      5  N   LIG    1       -0.709  -1.097   0.000  0.00  0.00    -0.125 NA
ENDROOT
BRANCH   1   6
ATOM      6  N   LIG    1        1.391   0.008   0.000  0.00  0.00    -0.336 N 
ATOM      7  H   LIG    1        1.908   0.875  -0.000  0.00  0.00    +0.144 HD
ATOM      8  H   LIG    1        1.930  -0.846   0.000  0.00  0.00    +0.144 HD
ENDBRANCH   1   6
BRANCH   3   9
ATOM      9  S   LIG    1       -3.922   1.192   0.000  0.00  0.00    -0.114 S 
ATOM     10  H   LIG    1       -4.855   0.202   0.000  0.00  0.00    +0.109 HD
ENDBRANCH   3   9
TORSDOF 2
