REMARK  Name = DB12919
REMARK                            x       y       z     vdW  Elec       q    Type
REMARK                         _______ _______ _______ _____ _____    ______ ____
ROOT
ATOM      1  C   LIG    1        1.455   0.080   0.090  0.00  0.00    +0.054 A 
ATOM      2  C   LIG    1        2.184  -0.781  -0.744  0.00  0.00    +0.074 A 
ATOM      3  S   LIG    1        3.896  -0.589  -0.631  0.00  0.00    -0.078 S 
ATOM      4  C   LIG    1        3.697   0.637   0.568  0.00  0.00    -0.005 A 
ATOM      5  C   LIG    1        4.887   1.274   1.277  0.00  0.00    +0.043 C 
ATOM      6  C   LIG    1        4.412   2.494   2.092  0.00  0.00    +0.005 C 
ATOM      7  C   LIG    1        3.126   2.193   2.879  0.00  0.00    +0.005 C 
ATOM      8  C   LIG    1        1.938   1.894   1.940  0.00  0.00    +0.037 C 
ATOM      9  C   LIG    1        2.344   0.895   0.848  0.00  0.00    -0.025 A 
ENDROOT
BRANCH   2  10
ATOM     10  N   LIG    1        1.710  -1.718  -1.621  0.00  0.00    -0.352 N 
ATOM     11  H   LIG    1        2.332  -2.291  -2.174  0.00  0.00    +0.143 HD
ATOM     12  H   LIG    1        0.720  -1.881  -1.734  0.00  0.00    +0.143 HD
ENDBRANCH   2  10
BRANCH   1  13
ATOM     13  C   LIG    1       -0.013   0.104   0.174  0.00  0.00    +0.196 C 
ATOM     14  O   LIG    1       -0.614  -0.955   0.364  0.00  0.00    -0.287 OA
BRANCH  13  16
ATOM     15  C   LIG    1       -2.069   1.502   0.522  0.00  0.00    +0.013 A 
ATOM     16  C   LIG    1       -0.748   1.409   0.060  0.00  0.00    +0.022 A 
ATOM     17  C   LIG    1       -0.163   2.526  -0.557  0.00  0.00    +0.013 A 
ATOM     18  C   LIG    1       -0.871   3.719  -0.675  0.00  0.00    +0.021 A 
ATOM     19  C   LIG    1       -2.174   3.801  -0.190  0.00  0.00    +0.041 A 
ATOM     20 CL   LIG    1       -3.050   5.281  -0.334  0.00  0.00    -0.084 Cl
ATOM     21  C   LIG    1       -2.776   2.696   0.405  0.00  0.00    +0.021 A 
ENDBRANCH  13  16
ENDBRANCH   1  13
TORSDOF 3
