REMARK  Name = DB12107
REMARK                            x       y       z     vdW  Elec       q    Type
REMARK                         _______ _______ _______ _____ _____    ______ ____
ROOT
ATOM      1  B   LIG    1       -0.781  -0.837  -1.698  0.00  0.00    +0.000 B 
ATOM      2  O   LIG    1       -0.411   0.277  -2.439  0.00  0.00    +0.000 OA
ATOM      3  C   LIG    1       -0.302   1.599  -1.901  0.00  0.00    +0.000 C 
ATOM      4  C   LIG    1       -0.268   1.706  -0.349  0.00  0.00    +0.000 C 
ATOM      5  C   LIG    1       -1.028   0.567   0.352  0.00  0.00    +0.000 C 
ATOM      6  C   LIG    1       -0.550  -0.817  -0.135  0.00  0.00    +0.000 C 
ENDROOT
BRANCH   6   7
ATOM      7  N   LIG    1        0.857  -1.124   0.126  0.00  0.00    +0.000 N 
ATOM      8  H   LIG    1        1.468  -1.103  -0.678  0.00  0.00    +0.000 HD
ATOM      9  C   LIG    1        1.397  -1.391   1.327  0.00  0.00    +0.000 C 
ATOM     10  O   LIG    1        0.749  -1.449   2.373  0.00  0.00    +0.000 OA
BRANCH   9  11
ATOM     11  C   LIG    1        2.915  -1.609   1.347  0.00  0.00    +0.000 C 
BRANCH  11  12
ATOM     12  C   LIG    1        3.723  -0.325   1.219  0.00  0.00    +0.000 A 
ATOM     13  S   LIG    1        5.390  -0.383   0.707  0.00  0.00    +0.000 S 
ATOM     14  C   LIG    1        5.558   1.335   0.815  0.00  0.00    +0.000 A 
ATOM     15  C   LIG    1        4.391   1.933   1.247  0.00  0.00    +0.000 A 
ATOM     16  C   LIG    1        3.374   1.005   1.485  0.00  0.00    +0.000 A 
ENDBRANCH  11  12
ENDBRANCH   9  11
ENDBRANCH   6   7
BRANCH   1  17
ATOM     17  O   LIG    1       -1.045  -2.000  -2.357  0.00  0.00    +0.000 OA
ATOM     18  H   LIG    1       -1.039  -1.874  -3.309  0.00  0.00    +0.000 HD
ENDBRANCH   1  17
BRANCH   3  19
ATOM     19  C   LIG    1        0.768   2.438  -2.645  0.00  0.00    +0.000 C 
BRANCH  19  20
ATOM     20  C   LIG    1        2.231   2.071  -2.340  0.00  0.00    +0.000 C 
ATOM     21  O   LIG    1        2.583   1.019  -1.809  0.00  0.00    +0.000 OA
BRANCH  20  22
ATOM     22  O   LIG    1        3.084   3.049  -2.761  0.00  0.00    +0.000 OA
ATOM     23  H   LIG    1        4.002   2.829  -2.587  0.00  0.00    +0.000 HD
ENDBRANCH  20  22
ENDBRANCH  19  20
ENDBRANCH   3  19
TORSDOF 7
