REMARK  Name = DB12474
REMARK                            x       y       z     vdW  Elec       q    Type
REMARK                         _______ _______ _______ _____ _____    ______ ____
ROOT
ATOM      1  C   LIG    1       -0.140   0.016  -0.159  0.00  0.00    +0.015 C 
ATOM      2  C   LIG    1        1.425   0.007  -0.055  0.00  0.00    +0.011 C 
ATOM      3  C   LIG    1        2.036   0.953  -1.165  0.00  0.00    +0.132 C 
ATOM      4  C   LIG    1        1.850   2.371  -0.542  0.00  0.00    +0.049 C 
ATOM      5  C   LIG    1        1.758   2.203   0.990  0.00  0.00    +0.008 C 
ATOM      6  C   LIG    1        1.952   0.701   1.232  0.00  0.00    +0.002 C 
ATOM      7  C   LIG    1        1.411   0.050   2.536  0.00  0.00    -0.003 C 
ATOM      8  C   LIG    1        1.910   0.774   3.799  0.00  0.00    +0.008 C 
ATOM      9  C   LIG    1        1.288   0.156   5.058  0.00  0.00    +0.031 C 
ATOM     10  C   LIG    1        1.662  -1.323   5.145  0.00  0.00    -0.070 C 
ATOM     11  C   LIG    1        1.359  -2.167   3.880  0.00  0.00    +0.018 C 
ATOM     12  C   LIG    1        1.940  -3.606   4.008  0.00  0.00    +0.008 C 
ATOM     13  C   LIG    1        1.815  -4.194   5.421  0.00  0.00    +0.005 C 
ATOM     14  C   LIG    1        2.543  -3.324   6.462  0.00  0.00    +0.027 C 
ATOM     15  C   LIG    1        2.211  -1.854   6.260  0.00  0.00    -0.027 C 
ATOM     16  C   LIG    1        1.866  -1.444   2.587  0.00  0.00    -0.000 C 
ATOM     17  C   LIG    1        1.448  -2.194   1.285  0.00  0.00    +0.005 C 
ATOM     18  C   LIG    1        1.934  -1.468   0.005  0.00  0.00    +0.011 C 
ENDROOT
BRANCH   3  19
ATOM     19  O   LIG    1        1.370   0.867  -2.414  0.00  0.00    -0.376 OA
ATOM     20  H   LIG    1        1.402  -0.046  -2.710  0.00  0.00    +0.211 HD
ENDBRANCH   3  19
BRANCH   3  21
ATOM     21  C   LIG    1        3.470   0.712  -1.477  0.00  0.00    -0.070 C 
ATOM     22  C   LIG    1        4.652   0.522  -1.719  0.00  0.00    +0.007 C 
ENDBRANCH   3  21
TORSDOF 2
