REMARK  Name = DB12316
REMARK                            x       y       z     vdW  Elec       q    Type
REMARK                         _______ _______ _______ _____ _____    ______ ____
ROOT
ATOM      1  C   LIG    1        3.141  -1.076  -0.553  0.00  0.00    +0.044 C 
ATOM      2  C   LIG    1        1.689  -0.993  -0.113  0.00  0.00    -0.050 C 
ATOM      3  C   LIG    1        1.097   0.219   0.009  0.00  0.00    +0.003 C 
ENDROOT
BRANCH   2   4
ATOM      4  C   LIG    1        0.995  -2.248   0.166  0.00  0.00    +0.007 C 
ATOM      5  C   LIG    1       -0.088  -2.737  -0.494  0.00  0.00    -0.040 C 
ATOM      6  C   LIG    1       -0.736  -4.040  -0.105  0.00  0.00    -0.019 A 
ATOM      7  C   LIG    1       -1.588  -4.731  -1.002  0.00  0.00    -0.040 A 
ATOM      8  C   LIG    1       -1.994  -4.114  -2.338  0.00  0.00    +0.036 C 
ATOM      9  C   LIG    1       -0.981  -3.064  -2.815  0.00  0.00    +0.009 C 
ATOM     10  C   LIG    1       -2.091  -5.988  -0.644  0.00  0.00    +0.004 A 
ATOM     11  C   LIG    1       -1.792  -6.563   0.586  0.00  0.00    +0.000 A 
ATOM     12  C   LIG    1       -0.983  -5.880   1.484  0.00  0.00    +0.001 A 
ATOM     13  C   LIG    1       -0.462  -4.635   1.142  0.00  0.00    +0.008 A 
ATOM     14  C   LIG    1       -0.715  -2.036  -1.706  0.00  0.00    +0.036 C 
ENDBRANCH   2   4
BRANCH   3  15
ATOM     15  C   LIG    1       -0.268   0.472   0.447  0.00  0.00    +0.001 C 
ATOM     16  C   LIG    1       -0.810   1.705   0.479  0.00  0.00    +0.003 C 
BRANCH  16  17
ATOM     17  C   LIG    1       -2.174   2.008   0.898  0.00  0.00    -0.044 C 
ATOM     18  C   LIG    1       -3.195   1.215   0.476  0.00  0.00    +0.094 C 
ATOM     19  C   LIG    1       -2.372   3.237   1.779  0.00  0.00    +0.044 C 
BRANCH  18  20
ATOM     20  C   LIG    1       -4.697   1.338   0.824  0.00  0.00    +0.330 C 
ATOM     21  O   LIG    1       -5.455   1.204  -0.162  0.00  0.00    -0.246 OA
BRANCH  20  22
ATOM     22  O   LIG    1       -4.971   1.466   2.039  0.00  0.00    -0.478 OA
ATOM     23  H   LIG    1       -4.283   1.558   2.668  0.00  0.00    +0.295 HD
ENDBRANCH  20  22
ENDBRANCH  18  20
ENDBRANCH  16  17
ENDBRANCH   3  15
TORSDOF 5
