REMARK  Name = DB12137
REMARK                            x       y       z     vdW  Elec       q    Type
REMARK                         _______ _______ _______ _____ _____    ______ ____
ROOT
ATOM      1  C   LIG    1       -4.214   2.257   0.295  0.00  0.00    +0.076 A 
ATOM      2  C   LIG    1       -4.970   1.083   0.253  0.00  0.00    +0.126 A 
ATOM      3  N   LIG    1       -4.455  -0.153   0.099  0.00  0.00    -0.254 NA
ATOM      4  C   LIG    1       -3.107  -0.300   0.009  0.00  0.00    +0.076 A 
ATOM      5  C   LIG    1       -2.564  -1.618  -0.116  0.00  0.00    -0.023 A 
ATOM      6  C   LIG    1       -3.487  -2.831  -0.178  0.00  0.00    +0.046 C 
ATOM      7  C   LIG    1       -1.185  -1.800  -0.181  0.00  0.00    +0.032 A 
ATOM      8  C   LIG    1       -0.322  -0.713  -0.111  0.00  0.00    +0.095 A 
ATOM      9  C   LIG    1       -0.828   0.575   0.019  0.00  0.00    +0.039 A 
ATOM     10  C   LIG    1       -2.228   0.832   0.051  0.00  0.00    +0.024 A 
ATOM     11  C   LIG    1       -2.808   2.153   0.155  0.00  0.00    +0.054 A 
ENDROOT
BRANCH   1  13
ATOM     12  O   LIG    1       -4.482   4.469   1.198  0.00  0.00    -0.270 OA
ATOM     13  C   LIG    1       -4.936   3.578   0.482  0.00  0.00    +0.245 C 
ATOM     14  N   LIG    1       -6.088   3.730  -0.180  0.00  0.00    -0.325 N 
ATOM     15  H   LIG    1       -6.437   2.997  -0.779  0.00  0.00    +0.145 HD
ATOM     16  H   LIG    1       -6.609   4.591  -0.095  0.00  0.00    +0.145 HD
ENDBRANCH   1  13
BRANCH   8  17
ATOM     17  S   LIG    1        1.453  -0.937  -0.197  0.00  0.00    +0.025 S 
ATOM     18  O   LIG    1        1.946  -0.029  -1.239  0.00  0.00    -0.164 OA
ATOM     19  O   LIG    1        1.728  -2.378  -0.269  0.00  0.00    -0.164 OA
BRANCH  17  20
ATOM     20  C   LIG    1        2.075  -0.340   1.374  0.00  0.00    +0.094 A 
ATOM     21  C   LIG    1        2.291  -1.228   2.430  0.00  0.00    +0.027 A 
ATOM     22  C   LIG    1        2.767  -0.756   3.652  0.00  0.00    +0.003 A 
ATOM     23  C   LIG    1        3.031   0.604   3.821  0.00  0.00    +0.013 A 
ATOM     24  C   LIG    1        2.830   1.507   2.767  0.00  0.00    +0.039 A 
ATOM     25  C   LIG    1        2.338   1.022   1.547  0.00  0.00    +0.040 A 
BRANCH  24  26
ATOM     26  C   LIG    1        3.066   2.991   2.940  0.00  0.00    +0.246 C 
ATOM     27  O   LIG    1        2.218   3.769   2.498  0.00  0.00    -0.270 OA
ATOM     28  N   LIG    1        4.176   3.423   3.597  0.00  0.00    -0.304 N 
ATOM     29  C   LIG    1        4.298   4.803   4.075  0.00  0.00    +0.132 C 
ATOM     30  C   LIG    1        5.377   2.621   3.848  0.00  0.00    +0.132 C 
ENDBRANCH  24  26
ENDBRANCH  17  20
ENDBRANCH   8  17
BRANCH  11  31
ATOM     31  N   LIG    1       -2.037   3.340   0.126  0.00  0.00    -0.313 N 
ATOM     32  H   LIG    1       -2.455   4.113   0.624  0.00  0.00    +0.152 HD
BRANCH  31  33
ATOM     33  C   LIG    1       -0.850   3.669  -0.545  0.00  0.00    +0.035 A 
ATOM     34  C   LIG    1       -0.567   3.166  -1.819  0.00  0.00    +0.023 A 
ATOM     35  C   LIG    1        0.628   3.499  -2.454  0.00  0.00    +0.005 A 
ATOM     36  C   LIG    1        1.540   4.346  -1.826  0.00  0.00    +0.046 A 
ATOM     37  C   LIG    1        1.260   4.879  -0.556  0.00  0.00    +0.122 A 
ATOM     38  C   LIG    1        0.056   4.538   0.066  0.00  0.00    +0.068 A 
BRANCH  37  39
ATOM     39  O   LIG    1        2.101   5.724   0.141  0.00  0.00    -0.495 OA
ATOM     40  C   LIG    1        3.375   6.042  -0.409  0.00  0.00    +0.277 C 
ENDBRANCH  37  39
ENDBRANCH  31  33
ENDBRANCH  11  31
TORSDOF 7
