REMARK  Name = DB12691
REMARK                            x       y       z     vdW  Elec       q    Type
REMARK                         _______ _______ _______ _____ _____    ______ ____
ROOT
ATOM      1  N   LIG    1        0.647  -1.933  -0.354  0.00  0.00    -0.204 NA
ATOM      2  C   LIG    1       -0.558  -1.653   0.158  0.00  0.00    +0.168 A 
ATOM      3  C   LIG    1       -1.020  -0.351   0.485  0.00  0.00    +0.148 A 
ATOM      4  N   LIG    1       -2.281  -0.410   1.013  0.00  0.00    -0.231 NA
ATOM      5  C   LIG    1       -2.573  -1.685   1.006  0.00  0.00    +0.203 A 
ATOM      6  C   LIG    1       -0.132   0.718   0.221  0.00  0.00    +0.151 A 
ATOM      7  N   LIG    1        1.088   0.460  -0.315  0.00  0.00    -0.206 NA
ATOM      8  N   LIG    1       -1.604  -2.510   0.468  0.00  0.00    -0.285 N 
ATOM      9  C   LIG    1        1.425  -0.836  -0.576  0.00  0.00    +0.219 A 
ENDROOT
BRANCH   8  10
ATOM     10  C   LIG    1       -1.650  -3.962   0.361  0.00  0.00    +0.254 C 
ATOM     11  O   LIG    1       -0.691  -4.446  -0.546  0.00  0.00    -0.339 OA
ATOM     12  C   LIG    1       -1.295  -4.956  -1.732  0.00  0.00    +0.237 C 
ATOM     13  C   LIG    1       -2.579  -5.565  -1.148  0.00  0.00    +0.185 C 
ATOM     14  C   LIG    1       -3.010  -4.541  -0.087  0.00  0.00    +0.196 C 
BRANCH  12  15
ATOM     15  C   LIG    1       -1.517  -3.837  -2.781  0.00  0.00    +0.245 C 
ATOM     16  O   LIG    1       -2.608  -3.693  -3.335  0.00  0.00    -0.273 OA
ATOM     17  N   LIG    1       -0.447  -3.071  -3.063  0.00  0.00    -0.313 N 
ATOM     18  H   LIG    1        0.416  -3.254  -2.571  0.00  0.00    +0.149 HD
BRANCH  17  19
ATOM     19  C   LIG    1       -0.423  -1.965  -4.018  0.00  0.00    +0.101 C 
ATOM     20  C   LIG    1       -1.144  -0.703  -3.518  0.00  0.00    +0.024 C 
ENDBRANCH  17  19
ENDBRANCH  12  15
BRANCH  13  21
ATOM     21  O   LIG    1       -2.335  -6.861  -0.622  0.00  0.00    -0.386 OA
ATOM     22  H   LIG    1       -3.171  -7.234  -0.331  0.00  0.00    +0.210 HD
ENDBRANCH  13  21
BRANCH  14  23
ATOM     23  O   LIG    1       -3.741  -5.040   1.020  0.00  0.00    -0.385 OA
ATOM     24  H   LIG    1       -3.236  -5.751   1.421  0.00  0.00    +0.210 HD
ENDBRANCH  14  23
ENDBRANCH   8  10
BRANCH   9  25
ATOM     25  C   LIG    1        2.767  -1.086  -1.219  0.00  0.00    +0.281 C 
ATOM     26  N   LIG    1        3.753  -0.245  -0.855  0.00  0.00    -0.307 N 
ATOM     27  H   LIG    1        3.552   0.449  -0.149  0.00  0.00    +0.149 HD
ATOM     28  O   LIG    1        2.922  -1.997  -2.037  0.00  0.00    -0.267 OA
BRANCH  26  29
ATOM     29  C   LIG    1        5.100  -0.225  -1.416  0.00  0.00    +0.123 C 
BRANCH  29  30
ATOM     30  C   LIG    1        5.219   0.588  -2.728  0.00  0.00    +0.124 C 
BRANCH  30  31
ATOM     31  N   LIG    1        5.033   2.031  -2.577  0.00  0.00    -0.298 N 
ATOM     32  H   LIG    1        4.185   2.415  -2.968  0.00  0.00    +0.150 HD
ATOM     33  C   LIG    1        5.860   2.848  -1.908  0.00  0.00    +0.300 C 
ATOM     34  O   LIG    1        7.012   2.553  -1.586  0.00  0.00    -0.253 OA
ATOM     35  N   LIG    1        5.241   3.982  -1.541  0.00  0.00    -0.296 N 
ATOM     36  H   LIG    1        4.341   4.187  -1.952  0.00  0.00    +0.151 HD
BRANCH  35  37
ATOM     37  C   LIG    1        5.633   4.827  -0.412  0.00  0.00    +0.077 C 
ATOM     38  C   LIG    1        4.993   6.223  -0.432  0.00  0.00    +0.041 C 
ATOM     39  C   LIG    1        5.374   7.087   0.788  0.00  0.00    +0.108 C 
ATOM     40  N   LIG    1        5.091   6.444   2.086  0.00  0.00    -0.315 N 
ATOM     41  C   LIG    1        5.801   5.149   2.142  0.00  0.00    +0.108 C 
ATOM     42  C   LIG    1        5.463   4.191   0.981  0.00  0.00    +0.041 C 
BRANCH  40  43
ATOM     43  C   LIG    1        4.886   7.220   3.234  0.00  0.00    +0.121 A 
ATOM     44  C   LIG    1        4.208   8.453   3.187  0.00  0.00    +0.043 A 
ATOM     45  C   LIG    1        3.965   9.154   4.369  0.00  0.00    +0.005 A 
ATOM     46  C   LIG    1        4.384   8.618   5.585  0.00  0.00    +0.020 A 
ATOM     47  C   LIG    1        5.031   7.384   5.576  0.00  0.00    +0.113 A 
ATOM     48  N   LIG    1        5.270   6.691   4.434  0.00  0.00    -0.240 NA
ENDBRANCH  40  43
ENDBRANCH  35  37
ENDBRANCH  30  31
ENDBRANCH  29  30
ENDBRANCH  26  29
ENDBRANCH   9  25
BRANCH   6  49
ATOM     49  N   LIG    1       -0.394   2.076   0.459  0.00  0.00    -0.326 N 
ATOM     50  H   LIG    1        0.325   2.751   0.244  0.00  0.00    +0.148 HD
BRANCH  49  51
ATOM     51  C   LIG    1       -1.622   2.559   1.078  0.00  0.00    +0.115 C 
BRANCH  51  52
ATOM     52  C   LIG    1       -1.675   4.103   1.210  0.00  0.00    +0.066 C 
BRANCH  52  53
ATOM     53  C   LIG    1       -3.035   4.648   1.667  0.00  0.00    -0.038 A 
ATOM     54  C   LIG    1       -3.885   3.906   2.499  0.00  0.00    +0.004 A 
ATOM     55  C   LIG    1       -5.113   4.430   2.894  0.00  0.00    +0.000 A 
ATOM     56  C   LIG    1       -5.495   5.697   2.459  0.00  0.00    +0.000 A 
ATOM     57  C   LIG    1       -4.659   6.445   1.635  0.00  0.00    +0.000 A 
ATOM     58  C   LIG    1       -3.432   5.921   1.240  0.00  0.00    +0.004 A 
ENDBRANCH  52  53
BRANCH  52  59
ATOM     59  C   LIG    1       -0.524   4.659   2.056  0.00  0.00    -0.038 A 
ATOM     60  C   LIG    1       -0.404   4.302   3.404  0.00  0.00    +0.004 A 
ATOM     61  C   LIG    1        0.654   4.793   4.164  0.00  0.00    +0.000 A 
ATOM     62  C   LIG    1        1.593   5.637   3.576  0.00  0.00    +0.000 A 
ATOM     63  C   LIG    1        1.484   5.994   2.234  0.00  0.00    +0.000 A 
ATOM     64  C   LIG    1        0.426   5.503   1.473  0.00  0.00    +0.004 A 
ENDBRANCH  52  59
ENDBRANCH  51  52
ENDBRANCH  49  51
ENDBRANCH   6  49
TORSDOF 16
