REMARK  Name = DB12728
REMARK                            x       y       z     vdW  Elec       q    Type
REMARK                         _______ _______ _______ _____ _____    ______ ____
ROOT
ATOM      1  C   LIG    1        0.136   0.089   0.383  0.00  0.00    +0.039 C 
ENDROOT
BRANCH   1   2
ATOM      2  C   LIG    1       -0.446   1.492   0.255  0.00  0.00    -0.047 A 
ATOM      3  C   LIG    1       -1.093   1.880  -0.918  0.00  0.00    +0.004 A 
ATOM      4  C   LIG    1       -1.616   3.164  -1.031  0.00  0.00    +0.004 A 
ATOM      5  C   LIG    1       -1.507   4.084   0.023  0.00  0.00    -0.042 A 
ATOM      6  C   LIG    1       -0.855   3.677   1.199  0.00  0.00    +0.004 A 
ATOM      7  C   LIG    1       -0.330   2.393   1.313  0.00  0.00    +0.004 A 
BRANCH   5   8
ATOM      8  C   LIG    1       -2.103   5.506  -0.143  0.00  0.00    -0.013 C 
ATOM      9  C   LIG    1       -3.624   5.406  -0.421  0.00  0.00    +0.015 C 
ATOM     10  C   LIG    1       -1.919   6.401   1.112  0.00  0.00    +0.015 C 
ATOM     11  C   LIG    1       -1.415   6.224  -1.331  0.00  0.00    +0.015 C 
ENDBRANCH   5   8
ENDBRANCH   1   2
BRANCH   1  13
ATOM     12  C   LIG    1        2.182  -1.405   0.485  0.00  0.00    +0.009 C 
ATOM     13  C   LIG    1        1.671   0.021   0.188  0.00  0.00    +0.004 C 
BRANCH  13  14
ATOM     14  C   LIG    1        2.092   0.530  -1.220  0.00  0.00    +0.088 C 
BRANCH  14  15
ATOM     15  N   LIG    1        3.524   0.409  -1.525  0.00  0.00    -0.302 NA
ATOM     16  C   LIG    1        4.366   1.247  -0.654  0.00  0.00    +0.084 C 
ATOM     17  C   LIG    1        5.868   1.097  -0.979  0.00  0.00    +0.015 C 
ATOM     18  C   LIG    1        6.168   1.358  -2.461  0.00  0.00    +0.002 C 
ATOM     19  C   LIG    1        5.246   0.501  -3.340  0.00  0.00    +0.015 C 
ATOM     20  C   LIG    1        3.761   0.666  -2.954  0.00  0.00    +0.084 C 
ENDBRANCH  14  15
ENDBRANCH  13  14
ENDBRANCH   1  13
TORSDOF 5
