REMARK  Name = DB12252
REMARK                            x       y       z     vdW  Elec       q    Type
REMARK                         _______ _______ _______ _____ _____    ______ ____
ROOT
ATOM      1  C   LIG    1        1.521  -0.053  -0.015  0.00  0.00    +0.129 C 
ATOM      2  C   LIG    1        2.119   1.284   0.481  0.00  0.00    +0.186 C 
ATOM      3  C   LIG    1        3.662   1.308   0.496  0.00  0.00    +0.156 C 
ATOM      4  O   LIG    1        4.149   2.582   0.806  0.00  0.00    -0.359 OA
ATOM      5  C   LIG    1        4.377   2.177  -0.520  0.00  0.00    +0.160 C 
ATOM      6  C   LIG    1        5.852   1.857  -0.870  0.00  0.00    +0.074 C 
ATOM      7  C   LIG    1        6.346   0.433  -0.492  0.00  0.00    +0.101 C 
ATOM      8  C   LIG    1        7.862   0.268  -0.685  0.00  0.00    +0.009 C 
ATOM      9  C   LIG    1        8.684   0.820  -1.815  0.00  0.00    +0.267 C 
ATOM     10  O   LIG    1        9.980   0.313  -1.561  0.00  0.00    -0.457 OA
ATOM     11  C   LIG    1        9.998  -0.455  -0.456  0.00  0.00    +0.336 C 
ATOM     12  O   LIG    1       10.997  -1.017  -0.011  0.00  0.00    -0.245 OA
ATOM     13  C   LIG    1        8.656  -0.490   0.091  0.00  0.00    +0.042 C 
ATOM     14  C   LIG    1        8.170  -1.303   1.290  0.00  0.00    +0.043 C 
ATOM     15  C   LIG    1        6.620  -1.335   1.291  0.00  0.00    +0.017 C 
ATOM     16  C   LIG    1        5.967   0.065   1.002  0.00  0.00    +0.035 C 
ATOM     17  C   LIG    1        6.551   1.074   2.046  0.00  0.00    +0.017 C 
ATOM     18  C   LIG    1        4.393   0.060   1.074  0.00  0.00    +0.140 C 
ATOM     19  O   LIG    1        3.813  -0.524   2.215  0.00  0.00    -0.358 OA
ATOM     20  C   LIG    1        3.659  -1.263   1.025  0.00  0.00    +0.186 C 
ATOM     21  O   LIG    1        2.258  -0.760  -0.986  0.00  0.00    -0.359 OA
ATOM     22  C   LIG    1        2.292  -1.315   0.302  0.00  0.00    +0.185 C 
ENDROOT
BRANCH   1  24
ATOM     23  C   LIG    1       -0.696  -0.633   1.170  0.00  0.00    +0.010 C 
ATOM     24  C   LIG    1       -0.033  -0.112  -0.122  0.00  0.00    +0.020 C 
ATOM     25  C   LIG    1       -0.530  -0.914  -1.342  0.00  0.00    +0.010 C 
ENDBRANCH   1  24
BRANCH   2  26
ATOM     26  O   LIG    1        1.682   1.533   1.805  0.00  0.00    -0.386 OA
ATOM     27  H   LIG    1        2.048   2.373   2.092  0.00  0.00    +0.210 HD
ENDBRANCH   2  26
BRANCH   7  28
ATOM     28  O   LIG    1        5.692  -0.433  -1.412  0.00  0.00    -0.383 OA
ATOM     29  H   LIG    1        5.937  -1.337  -1.203  0.00  0.00    +0.211 HD
ENDBRANCH   7  28
TORSDOF 3
