REMARK  Name = DB12576
REMARK                            x       y       z     vdW  Elec       q    Type
REMARK                         _______ _______ _______ _____ _____    ______ ____
ROOT
ATOM      1  C   LIG    1       -3.042   0.107   0.272  0.00  0.00    -0.033 A 
ATOM      2  C   LIG    1       -2.244   1.252   0.209  0.00  0.00    +0.053 A 
ATOM      3  C   LIG    1       -0.843   1.156   0.160  0.00  0.00    +0.162 A 
ATOM      4  C   LIG    1       -0.238  -0.110   0.192  0.00  0.00    +0.163 A 
ATOM      5  C   LIG    1       -1.047  -1.257   0.266  0.00  0.00    +0.050 A 
ATOM      6  C   LIG    1       -2.435  -1.148   0.305  0.00  0.00    +0.008 A 
ENDROOT
BRANCH   1   7
ATOM      7  C   LIG    1       -4.560   0.222   0.332  0.00  0.00    +0.155 C 
BRANCH   7   8
ATOM      8  C   LIG    1       -5.110   0.690  -1.019  0.00  0.00    +0.311 C 
ATOM      9  O   LIG    1       -5.327  -0.107  -1.934  0.00  0.00    -0.250 OA
BRANCH   8  10
ATOM     10  O   LIG    1       -5.292   2.026  -1.064  0.00  0.00    -0.464 OA
BRANCH  10  11
ATOM     11  C   LIG    1       -5.766   2.656  -2.246  0.00  0.00    +0.232 C 
BRANCH  11  13
ATOM     12  C   LIG    1       -6.309   4.933  -3.265  0.00  0.00    +0.007 C 
ATOM     13  C   LIG    1       -5.807   4.175  -2.030  0.00  0.00    +0.038 C 
ENDBRANCH  11  13
ENDBRANCH  10  11
ENDBRANCH   8  10
ENDBRANCH   7   8
ENDBRANCH   1   7
BRANCH   3  14
ATOM     14  O   LIG    1       -0.002   2.252   0.081  0.00  0.00    -0.489 OA
BRANCH  14  15
ATOM     15  C   LIG    1       -0.556   3.562  -0.003  0.00  0.00    +0.226 C 
ATOM     16  C   LIG    1        0.588   4.571  -0.130  0.00  0.00    +0.048 C 
ENDBRANCH  14  15
ENDBRANCH   3  14
BRANCH   4  17
ATOM     17  O   LIG    1        1.148  -0.143   0.151  0.00  0.00    -0.479 OA
BRANCH  17  18
ATOM     18  C   LIG    1        1.865  -1.383   0.162  0.00  0.00    +0.324 C 
BRANCH  18  19
ATOM     19  C   LIG    1        1.868  -2.067  -1.227  0.00  0.00    +0.253 C 
ATOM     20  N   LIG    1        2.520  -3.251  -1.378  0.00  0.00    -0.299 N 
ATOM     21  O   LIG    1        1.279  -1.520  -2.163  0.00  0.00    -0.272 OA
BRANCH  20  22
ATOM     22  C   LIG    1        3.295  -3.905  -0.313  0.00  0.00    +0.104 C 
ATOM     23  C   LIG    1        4.774  -3.487  -0.304  0.00  0.00    +0.024 C 
ENDBRANCH  20  22
BRANCH  20  24
ATOM     24  C   LIG    1        2.550  -3.950  -2.672  0.00  0.00    +0.104 C 
ATOM     25  C   LIG    1        1.274  -4.760  -2.951  0.00  0.00    +0.024 C 
ENDBRANCH  20  24
ENDBRANCH  18  19
ENDBRANCH  17  18
ENDBRANCH   4  17
TORSDOF 12
