REMARK  Name = DB12110
REMARK                            x       y       z     vdW  Elec       q    Type
REMARK                         _______ _______ _______ _____ _____    ______ ____
ROOT
ATOM      1  N   LIG    1        0.115   0.110   0.185  0.00  0.00    -0.333 N 
ATOM      2  C   LIG    1       -0.542   1.425   0.097  0.00  0.00    +0.086 C 
ATOM      3  C   LIG    1       -2.072   1.352  -0.110  0.00  0.00    -0.063 C 
ATOM      4  N   LIG    1       -2.704   0.531   1.021  0.00  0.00    +0.381 N 
ATOM      5  H   LIG    1       -2.556   0.995   1.906  0.00  0.00    -0.086 HD
ATOM      6  H   LIG    1       -3.701   0.450   0.878  0.00  0.00    -0.086 HD
ATOM      7  C   LIG    1       -2.060  -0.862   1.048  0.00  0.00    -0.063 C 
ATOM      8  C   LIG    1       -0.530  -0.723   1.214  0.00  0.00    +0.086 C 
ENDROOT
BRANCH   1   9
ATOM      9  C   LIG    1        1.496   0.071   0.107  0.00  0.00    +0.031 A 
ATOM     10  C   LIG    1        2.106  -0.569  -0.978  0.00  0.00    +0.023 A 
ATOM     11  C   LIG    1        3.497  -0.629  -1.073  0.00  0.00    +0.003 A 
ATOM     12  C   LIG    1        4.290  -0.052  -0.082  0.00  0.00    +0.020 A 
ATOM     13  C   LIG    1        3.693   0.584   1.006  0.00  0.00    +0.043 A 
ATOM     14 CL   LIG    1        4.673   1.294   2.237  0.00  0.00    -0.083 Cl
ATOM     15  C   LIG    1        2.301   0.645   1.100  0.00  0.00    +0.043 A 
ENDBRANCH   1   9
TORSDOF 1
