REMARK  Name = DB12903
REMARK                            x       y       z     vdW  Elec       q    Type
REMARK                         _______ _______ _______ _____ _____    ______ ____
ROOT
ATOM      1  N   LIG    1        1.298  -0.062  -0.190  0.00  0.00    -0.218 N 
ATOM      2  N   LIG    1        2.049   0.741   0.582  0.00  0.00    -0.172 NA
ATOM      3  C   LIG    1        3.290   0.447   0.283  0.00  0.00    +0.148 A 
ATOM      4  C   LIG    1        3.399  -0.571  -0.673  0.00  0.00    +0.083 A 
ATOM      5  C   LIG    1        2.074  -0.872  -1.002  0.00  0.00    +0.131 A 
ENDROOT
BRANCH   1  13
ATOM      6  C   LIG    1       -5.663  -2.143   0.495  0.00  0.00    +0.086 C 
ATOM      7  C   LIG    1       -4.326  -1.456   0.342  0.00  0.00    +0.105 A 
ATOM      8  N   LIG    1       -4.209  -0.091   0.224  0.00  0.00    -0.342 N 
ATOM      9  H   LIG    1       -4.997   0.540   0.232  0.00  0.00    +0.167 HD
ATOM     10  C   LIG    1       -2.869   0.195   0.105  0.00  0.00    +0.066 A 
ATOM     11  C   LIG    1       -2.143   1.380  -0.039  0.00  0.00    +0.030 A 
ATOM     12  C   LIG    1       -0.755   1.254  -0.132  0.00  0.00    +0.030 A 
ATOM     13  C   LIG    1       -0.112   0.008  -0.088  0.00  0.00    +0.070 A 
ATOM     14  C   LIG    1       -0.851  -1.173   0.063  0.00  0.00    +0.057 A 
ATOM     15  C   LIG    1       -2.246  -1.078   0.159  0.00  0.00    +0.091 A 
ATOM     16  N   LIG    1       -3.173  -2.077   0.307  0.00  0.00    -0.233 NA
ENDBRANCH   1  13
BRANCH   5  17
ATOM     17  N   LIG    1        1.527  -1.724  -1.927  0.00  0.00    -0.342 N 
ATOM     18  H   LIG    1        0.528  -1.800  -2.052  0.00  0.00    +0.144 HD
ATOM     19  H   LIG    1        2.106  -2.295  -2.526  0.00  0.00    +0.144 HD
ENDBRANCH   5  17
BRANCH   4  20
ATOM     20  C   LIG    1        4.649  -1.116  -1.206  0.00  0.00    +0.214 C 
ATOM     21  O   LIG    1        5.624  -0.377  -1.358  0.00  0.00    -0.285 OA
BRANCH  20  22
ATOM     22  C   LIG    1        4.714  -2.546  -1.531  0.00  0.00    +0.088 A 
ATOM     23  N   LIG    1        5.776  -2.993  -2.284  0.00  0.00    -0.352 N 
ATOM     24  H   LIG    1        6.487  -2.366  -2.633  0.00  0.00    +0.166 HD
ATOM     25  C   LIG    1        5.690  -4.357  -2.475  0.00  0.00    +0.047 A 
ATOM     26  C   LIG    1        6.515  -5.241  -3.179  0.00  0.00    +0.026 A 
ATOM     27  C   LIG    1        6.147  -6.587  -3.179  0.00  0.00    +0.002 A 
ATOM     28  C   LIG    1        5.013  -7.039  -2.509  0.00  0.00    +0.001 A 
ATOM     29  C   LIG    1        4.192  -6.159  -1.805  0.00  0.00    +0.010 A 
ATOM     30  C   LIG    1        4.522  -4.795  -1.779  0.00  0.00    +0.000 A 
ATOM     31  C   LIG    1        3.936  -3.635  -1.174  0.00  0.00    +0.039 A 
ENDBRANCH  20  22
ENDBRANCH   4  20
TORSDOF 4
