REMARK  Name = DB12174
REMARK                            x       y       z     vdW  Elec       q    Type
REMARK                         _______ _______ _______ _____ _____    ______ ____
ROOT
ATOM      1  C   LIG    1       -2.003   1.226   0.016  0.00  0.00    +0.164 A 
ATOM      2  C   LIG    1       -0.603   1.245   0.032  0.00  0.00    +0.163 A 
ATOM      3  C   LIG    1        0.080   2.469   0.067  0.00  0.00    +0.062 A 
ATOM      4  C   LIG    1       -0.620   3.703   0.055  0.00  0.00    +0.044 A 
ATOM      5  C   LIG    1       -0.022   5.008   0.064  0.00  0.00    +0.134 A 
ATOM      6  N   LIG    1       -0.761   6.140   0.138  0.00  0.00    -0.220 NA
ATOM      7  C   LIG    1       -2.105   5.987   0.143  0.00  0.00    +0.223 A 
ATOM      8  N   LIG    1       -2.789   4.819   0.095  0.00  0.00    -0.235 NA
ATOM      9  C   LIG    1       -2.047   3.675   0.058  0.00  0.00    +0.080 A 
ATOM     10  C   LIG    1       -2.719   2.433   0.034  0.00  0.00    +0.078 A 
ENDROOT
BRANCH   1  12
ATOM     11  C   LIG    1       -4.030  -0.109  -0.041  0.00  0.00    +0.277 C 
ATOM     12  O   LIG    1       -2.609  -0.018  -0.016  0.00  0.00    -0.491 OA
ENDBRANCH   1  12
BRANCH   5  13
ATOM     13  N   LIG    1        1.363   5.243   0.038  0.00  0.00    -0.299 N 
ATOM     14  H   LIG    1        1.657   6.064   0.548  0.00  0.00    +0.154 HD
BRANCH  13  15
ATOM     15  C   LIG    1        2.370   4.646  -0.737  0.00  0.00    +0.034 A 
ATOM     16  C   LIG    1        3.694   4.727  -0.296  0.00  0.00    +0.040 A 
ATOM     17  C   LIG    1        4.726   4.145  -1.040  0.00  0.00    +0.026 A 
ATOM     18  C   LIG    1        4.432   3.488  -2.238  0.00  0.00    +0.017 A 
ATOM     19  C   LIG    1        3.115   3.418  -2.691  0.00  0.00    +0.003 A 
ATOM     20  C   LIG    1        2.089   3.999  -1.948  0.00  0.00    +0.023 A 
BRANCH  17  21
ATOM     21  C   LIG    1        6.100   4.221  -0.567  0.00  0.00    -0.070 C 
ATOM     22  C   LIG    1        7.253   4.271  -0.167  0.00  0.00    +0.009 C 
ENDBRANCH  17  21
ENDBRANCH  13  15
ENDBRANCH   5  13
BRANCH   2  23
ATOM     23  O   LIG    1        0.039   0.018   0.013  0.00  0.00    -0.488 OA
BRANCH  23  24
ATOM     24  C   LIG    1        1.462  -0.036  -0.042  0.00  0.00    +0.229 C 
BRANCH  24  25
ATOM     25  C   LIG    1        1.893  -1.507  -0.141  0.00  0.00    +0.041 C 
BRANCH  25  26
ATOM     26  C   LIG    1        3.418  -1.680  -0.249  0.00  0.00    +0.003 C 
BRANCH  26  27
ATOM     27  C   LIG    1        3.845  -3.155  -0.353  0.00  0.00    +0.001 C 
BRANCH  27  28
ATOM     28  C   LIG    1        5.368  -3.333  -0.476  0.00  0.00    +0.009 C 
BRANCH  28  29
ATOM     29  C   LIG    1        5.787  -4.816  -0.588  0.00  0.00    +0.098 C 
BRANCH  29  30
ATOM     30  C   LIG    1        7.299  -5.046  -0.752  0.00  0.00    +0.235 C 
ATOM     31  N   LIG    1        7.664  -6.314  -1.010  0.00  0.00    -0.197 N 
ATOM     32  H   LIG    1        7.080  -7.135  -1.074  0.00  0.00    +0.182 HD
ATOM     33  O   LIG    1        8.096  -4.110  -0.642  0.00  0.00    -0.274 OA
BRANCH  31  34
ATOM     34  O   LIG    1        9.027  -6.599  -1.141  0.00  0.00    -0.295 OA
ATOM     35  H   LIG    1        9.231  -7.077  -0.333  0.00  0.00    +0.241 HD
ENDBRANCH  31  34
ENDBRANCH  29  30
ENDBRANCH  28  29
ENDBRANCH  27  28
ENDBRANCH  26  27
ENDBRANCH  25  26
ENDBRANCH  24  25
ENDBRANCH  23  24
ENDBRANCH   2  23
TORSDOF 13
