REMARK  Name = DB12337
REMARK                            x       y       z     vdW  Elec       q    Type
REMARK                         _______ _______ _______ _____ _____    ______ ____
ROOT
ATOM      1  C   LIG    1       -2.811   0.048   0.021  0.00  0.00    +0.106 A 
ATOM      2  C   LIG    1       -2.150   1.276   0.061  0.00  0.00    +0.030 A 
ATOM      3  C   LIG    1       -0.759   1.318   0.011  0.00  0.00    +0.025 A 
ATOM      4  C   LIG    1       -0.022   0.126  -0.083  0.00  0.00    +0.033 A 
ATOM      5  C   LIG    1       -0.696  -1.098  -0.124  0.00  0.00    +0.025 A 
ATOM      6  C   LIG    1       -2.086  -1.139  -0.074  0.00  0.00    +0.030 A 
ENDROOT
BRANCH   4   7
ATOM      7  N   LIG    1        1.384   0.048  -0.139  0.00  0.00    -0.286 N 
ATOM      8  H   LIG    1        1.743  -0.894  -0.171  0.00  0.00    +0.155 HD
ATOM      9  C   LIG    1        2.305   1.034  -0.168  0.00  0.00    +0.214 C 
ATOM     10  O   LIG    1        2.068   2.241  -0.158  0.00  0.00    -0.276 OA
ATOM     11  C   LIG    1        3.759   0.573  -0.224  0.00  0.00    +0.109 C 
ENDBRANCH   4   7
BRANCH   1  12
ATOM     12  S   LIG    1       -4.598  -0.005   0.076  0.00  0.00    +0.080 S 
ATOM     13  O   LIG    1       -5.114   1.255   0.623  0.00  0.00    -0.153 OA
ATOM     14  O   LIG    1       -5.036  -1.318   0.566  0.00  0.00    -0.153 OA
ATOM     15 CL   LIG    1       -5.084   0.025  -2.007  0.00  0.00    +0.060 Cl
ENDBRANCH   1  12
TORSDOF 2
