REMARK  Name = DB12224
REMARK                            x       y       z     vdW  Elec       q    Type
REMARK                         _______ _______ _______ _____ _____    ______ ____
ROOT
ATOM      1  C   UNK    1       -0.582  -0.680  -1.206  0.00  0.00    +0.112 C 
ATOM      2  S   UNK    1       -2.214   0.035  -1.464  0.00  0.00    -0.065 S 
ATOM      3  C   UNK    1       -1.776   1.579  -0.582  0.00  0.00    +0.273 C 
ATOM      4  O   UNK    1       -2.502   2.565  -0.486  0.00  0.00    -0.263 OA
ATOM      5  N   UNK    1       -0.511   1.403  -0.045  0.00  0.00    -0.293 N 
ATOM      6  H   UNK    1       -0.082   2.120   0.521  0.00  0.00    +0.150 HD
ATOM      7  C   UNK    1        0.010   0.037   0.015  0.00  0.00    +0.193 C 
ENDROOT
BRANCH   7   8
ATOM      8  C   UNK    1        1.562  -0.006  -0.030  0.00  0.00    +0.326 C 
ATOM      9  O   UNK    1        2.118  -0.846   0.714  0.00  0.00    -0.249 OA
BRANCH   8  10
ATOM     10  O   UNK    1        2.187   0.811  -0.749  0.00  0.00    -0.479 OA
ATOM     11  H   UNK    1        1.717   1.418  -1.286  0.00  0.00    +0.295 HD
ENDBRANCH   8  10
ENDBRANCH   7   8
TORSDOF 2
