REMARK  Name = DB12596
REMARK                            x       y       z     vdW  Elec       q    Type
REMARK                         _______ _______ _______ _____ _____    ______ ____
ROOT
ATOM      1  C   LIG    1       -0.016  -0.006  -0.031  0.00  0.00    +0.149 C 
ENDROOT
BRANCH   1   2
ATOM      2  C   LIG    1        1.514  -0.079  -0.056  0.00  0.00    -0.012 A 
ATOM      3  C   LIG    1        2.217  -0.144   1.150  0.00  0.00    +0.055 A 
ATOM      4  C   LIG    1        3.619  -0.171   1.171  0.00  0.00    +0.166 A 
ATOM      5  C   LIG    1        4.314  -0.160  -0.047  0.00  0.00    +0.204 A 
ATOM      6  C   LIG    1        3.630  -0.089  -1.268  0.00  0.00    +0.166 A 
ATOM      7  C   LIG    1        2.227  -0.045  -1.258  0.00  0.00    +0.055 A 
BRANCH   4   8
ATOM      8  O   LIG    1        4.372  -0.203   2.331  0.00  0.00    -0.491 OA
ATOM      9  C   LIG    1        3.714  -0.144   3.592  0.00  0.00    +0.277 C 
ENDBRANCH   4   8
BRANCH   5  10
ATOM     10  O   LIG    1        5.688  -0.188  -0.043  0.00  0.00    -0.488 OA
ATOM     11  C   LIG    1        6.238  -1.498  -0.047  0.00  0.00    +0.277 C 
ENDBRANCH   5  10
BRANCH   6  12
ATOM     12  O   LIG    1        4.396  -0.061  -2.420  0.00  0.00    -0.491 OA
ATOM     13  C   LIG    1        3.752   0.013  -3.687  0.00  0.00    +0.277 C 
ENDBRANCH   6  12
ENDBRANCH   1   2
BRANCH   1  14
ATOM     14  O   LIG    1       -0.622  -0.680  -1.119  0.00  0.00    -0.387 OA
ATOM     15  H   LIG    1       -0.422  -1.616  -1.044  0.00  0.00    +0.210 HD
ENDBRANCH   1  14
BRANCH   1  16
ATOM     16  C   LIG    1       -0.542   1.449  -0.004  0.00  0.00    +0.071 C 
BRANCH  16  20
ATOM     17  C   LIG    1        0.734   3.597   3.545  0.00  0.00    +0.161 A 
ATOM     18  C   LIG    1        1.419   3.753   2.332  0.00  0.00    +0.159 A 
ATOM     19  C   LIG    1        0.996   3.076   1.186  0.00  0.00    +0.053 A 
ATOM     20  C   LIG    1       -0.111   2.226   1.234  0.00  0.00    -0.041 A 
ATOM     21  C   LIG    1       -0.802   2.068   2.437  0.00  0.00    +0.007 A 
ATOM     22  C   LIG    1       -0.386   2.747   3.581  0.00  0.00    +0.049 A 
BRANCH  17  24
ATOM     23  C   LIG    1        0.544   4.158   5.896  0.00  0.00    +0.277 C 
ATOM     24  O   LIG    1        1.207   4.294   4.644  0.00  0.00    -0.491 OA
ENDBRANCH  17  24
BRANCH  18  25
ATOM     25  O   LIG    1        2.520   4.566   2.251  0.00  0.00    -0.503 OA
ATOM     26  H   LIG    1        2.912   4.585   1.375  0.00  0.00    +0.292 HD
ENDBRANCH  18  25
ENDBRANCH  16  20
ENDBRANCH   1  16
TORSDOF 9
