REMARK  Name = DB12225
REMARK                            x       y       z     vdW  Elec       q    Type
REMARK                         _______ _______ _______ _____ _____    ______ ____
ROOT
ATOM      1  C   LIG    1       -4.271   5.491   1.672  0.00  0.00    +0.027 C 
ATOM      2  C   LIG    1       -3.338   4.349   1.342  0.00  0.00    +0.072 C 
ATOM      3  C   LIG    1       -3.010   3.943  -0.110  0.00  0.00    +0.139 C 
ATOM      4  N   LIG    1       -3.177   2.500  -0.265  0.00  0.00    -0.339 N 
ATOM      5  C   LIG    1       -4.401   1.857  -0.232  0.00  0.00    +0.054 A 
ATOM      6  C   LIG    1       -5.702   2.599  -0.099  0.00  0.00    +0.002 A 
ATOM      7  C   LIG    1       -6.753   2.272  -0.964  0.00  0.00    +0.014 A 
ATOM      8  C   LIG    1       -7.984   2.915  -0.879  0.00  0.00    +0.046 A 
ATOM      9  C   LIG    1       -8.195   3.916   0.078  0.00  0.00    +0.120 A 
ATOM     10  C   LIG    1       -7.144   4.254   0.930  0.00  0.00    +0.050 A 
ATOM     11  C   LIG    1       -5.898   3.624   0.855  0.00  0.00    -0.031 A 
ATOM     12  C   LIG    1       -4.203   0.478  -0.313  0.00  0.00    -0.011 A 
ATOM     13  C   LIG    1       -2.777   0.287  -0.379  0.00  0.00    +0.004 A 
ATOM     14  C   LIG    1       -1.955  -0.846  -0.464  0.00  0.00    +0.011 A 
ATOM     15  C   LIG    1       -0.573  -0.693  -0.444  0.00  0.00    +0.014 A 
ATOM     16  C   LIG    1        0.042   0.568  -0.347  0.00  0.00    +0.040 A 
ATOM     17  C   LIG    1       -0.764   1.719  -0.294  0.00  0.00    +0.039 A 
ATOM     18  C   LIG    1       -2.158   1.565  -0.314  0.00  0.00    +0.051 A 
ATOM     19  C   LIG    1       -4.774   4.065   1.794  0.00  0.00    +0.037 C 
ENDROOT
BRANCH   2  20
ATOM     20  C   LIG    1       -2.247   3.984   2.375  0.00  0.00    +0.224 C 
ATOM     21  N   LIG    1       -1.183   4.812   2.530  0.00  0.00    -0.298 N 
ATOM     22  C   LIG    1       -1.008   6.143   1.941  0.00  0.00    +0.060 C 
ATOM     23  C   LIG    1       -0.638   6.948   3.204  0.00  0.00    +0.022 C 
ATOM     24  C   LIG    1       -0.025   5.930   4.184  0.00  0.00    +0.022 C 
ATOM     25  C   LIG    1        0.159   6.006   0.916  0.00  0.00    -0.056 C 
ATOM     26  N   LIG    1        1.433   5.445   1.599  0.00  0.00    +0.380 N 
ATOM     27  H   LIG    1        1.776   6.189   2.190  0.00  0.00    -0.082 HD
ATOM     28  C   LIG    1        2.524   5.112   0.565  0.00  0.00    -0.096 C 
ATOM     29  C   LIG    1        1.152   4.260   2.560  0.00  0.00    -0.056 C 
ATOM     30  C   LIG    1       -0.082   4.568   3.463  0.00  0.00    +0.060 C 
ATOM     31  O   LIG    1       -2.363   2.938   3.016  0.00  0.00    -0.275 OA
ENDBRANCH   2  20
BRANCH  12  32
ATOM     32  C   LIG    1       -5.249  -0.630  -0.292  0.00  0.00    +0.022 C 
ATOM     33  C   LIG    1       -5.343  -1.413  -1.627  0.00  0.00    +0.008 C 
ATOM     34  C   LIG    1       -6.397  -2.538  -1.587  0.00  0.00    +0.001 C 
ATOM     35  C   LIG    1       -6.209  -3.471  -0.379  0.00  0.00    +0.000 C 
ATOM     36  C   LIG    1       -6.201  -2.681   0.941  0.00  0.00    +0.001 C 
ATOM     37  C   LIG    1       -5.140  -1.562   0.943  0.00  0.00    +0.008 C 
ENDBRANCH  12  32
BRANCH  16  38
ATOM     38  C   LIG    1        1.559   0.727  -0.285  0.00  0.00    +0.264 C 
ATOM     39  N   LIG    1        2.261  -0.376  -0.426  0.00  0.00    -0.171 N 
ATOM     40  H   LIG    1        1.799  -1.230  -0.591  0.00  0.00    +0.178 HD
ATOM     41  O   LIG    1        2.025   1.855  -0.096  0.00  0.00    -0.269 OA
BRANCH  39  42
ATOM     42  S   LIG    1        3.831  -0.343  -0.334  0.00  0.00    +0.114 S 
ATOM     43  O   LIG    1        4.315  -0.078   1.027  0.00  0.00    -0.138 OA
ATOM     44  O   LIG    1        4.465   0.409  -1.424  0.00  0.00    -0.138 OA
BRANCH  42  45
ATOM     45  N   LIG    1        4.244  -2.045  -0.653  0.00  0.00    -0.170 NA
ATOM     46  C   LIG    1        5.659  -2.398  -0.408  0.00  0.00    +0.132 C 
ATOM     47  C   LIG    1        3.678  -2.656  -1.879  0.00  0.00    +0.132 C 
ENDBRANCH  42  45
ENDBRANCH  39  42
ENDBRANCH  16  38
BRANCH   9  48
ATOM     48  O   LIG    1       -9.380   4.608   0.241  0.00  0.00    -0.495 OA
ATOM     49  C   LIG    1      -10.482   4.303  -0.606  0.00  0.00    +0.277 C 
ENDBRANCH   9  48
TORSDOF 6
