REMARK  Name = DB12749
REMARK                            x       y       z     vdW  Elec       q    Type
REMARK                         _______ _______ _______ _____ _____    ______ ____
ROOT
ATOM      1  C   LIG    1        3.550  -1.459   0.070  0.00  0.00    +0.208 C 
ATOM      2  O   LIG    1        4.069  -0.821   1.231  0.00  0.00    -0.453 OA
ATOM      3  C   LIG    1        4.869  -1.643   1.953  0.00  0.00    +0.340 C 
ATOM      4  O   LIG    1        5.421  -1.290   2.993  0.00  0.00    -0.245 OA
ATOM      5  C   LIG    1        4.910  -2.942   1.254  0.00  0.00    +0.066 A 
ATOM      6  C   LIG    1        5.577  -4.128   1.565  0.00  0.00    +0.015 A 
ATOM      7  C   LIG    1        5.440  -5.227   0.713  0.00  0.00    +0.001 A 
ATOM      8  C   LIG    1        4.644  -5.134  -0.433  0.00  0.00    +0.000 A 
ATOM      9  C   LIG    1        3.982  -3.941  -0.734  0.00  0.00    +0.008 A 
ATOM     10  C   LIG    1        4.121  -2.846   0.122  0.00  0.00    +0.007 A 
ENDROOT
BRANCH   1  11
ATOM     11  C   LIG    1        2.008  -1.395   0.097  0.00  0.00    +0.049 C 
BRANCH  11  12
ATOM     12  C   LIG    1        1.451   0.039   0.001  0.00  0.00    +0.004 C 
BRANCH  12  14
ATOM     13  C   LIG    1       -0.641   1.514  -0.094  0.00  0.00    +0.004 C 
ATOM     14  C   LIG    1       -0.087   0.085  -0.021  0.00  0.00    -0.003 C 
ENDBRANCH  12  14
ENDBRANCH  11  12
ENDBRANCH   1  11
TORSDOF 3
