REMARK  Name = DB12094
REMARK                            x       y       z     vdW  Elec       q    Type
REMARK                         _______ _______ _______ _____ _____    ______ ____
ROOT
ATOM      1  C   LIG    1       -0.082   0.162   0.040  0.00  0.00    +0.000 C 
ENDROOT
BRANCH   1   2
ATOM      2  C   LIG    1       -0.529   1.628  -0.086  0.00  0.00    +0.000 C 
BRANCH   2   3
ATOM      3  C   LIG    1       -2.064   1.791  -0.080  0.00  0.00    +0.009 C 
BRANCH   3   4
ATOM      4  C   LIG    1       -2.554   3.255  -0.174  0.00  0.00    +0.096 C 
BRANCH   4   6
ATOM      5  O   LIG    1       -2.270   3.362  -2.553  0.00  0.00    -0.275 OA
ATOM      6  C   LIG    1       -2.186   3.970  -1.485  0.00  0.00    +0.217 C 
ATOM      7  N   LIG    1       -1.823   5.266  -1.364  0.00  0.00    -0.285 N 
ATOM      8  H   LIG    1       -1.922   5.681  -0.449  0.00  0.00    +0.155 HD
BRANCH   7   9
ATOM      9  C   LIG    1       -1.397   6.148  -2.375  0.00  0.00    +0.035 A 
ATOM     10  C   LIG    1       -1.577   7.509  -2.141  0.00  0.00    +0.033 A 
ATOM     11  C   LIG    1       -1.173   8.485  -3.070  0.00  0.00    -0.000 A 
ATOM     12  C   LIG    1       -0.568   8.020  -4.253  0.00  0.00    +0.019 A 
ATOM     13  C   LIG    1       -0.351   6.656  -4.530  0.00  0.00    -0.000 A 
ATOM     14  C   LIG    1       -0.771   5.734  -3.557  0.00  0.00    +0.033 A 
BRANCH  11  15
ATOM     15  C   LIG    1       -1.390   9.942  -2.801  0.00  0.00    +0.063 C 
ATOM     16  C   LIG    1       -0.816  10.905  -3.872  0.00  0.00    +0.068 C 
ATOM     17  N   LIG    1       -2.035  10.291  -1.742  0.00  0.00    -0.189 NA
BRANCH  17  18
ATOM     18  N   LIG    1       -2.257  11.624  -1.475  0.00  0.00    -0.232 N 
ATOM     19  H   LIG    1       -1.885  12.289  -2.138  0.00  0.00    +0.172 HD
BRANCH  18  20
ATOM     20  C   LIG    1       -2.928  12.072  -0.401  0.00  0.00    +0.199 C 
BRANCH  20  21
ATOM     21  N   LIG    1       -3.062  13.382  -0.258  0.00  0.00    -0.293 NA
ATOM     22  H   LIG    1       -2.426  14.010  -0.729  0.00  0.00    +0.122 HD
ATOM     23  H   LIG    1       -3.800  13.752   0.325  0.00  0.00    +0.122 HD
ENDBRANCH  20  21
BRANCH  20  24
ATOM     24  N   LIG    1       -3.471  11.294   0.537  0.00  0.00    -0.293 NA
ATOM     25  H   LIG    1       -3.399  10.290   0.453  0.00  0.00    +0.122 HD
ATOM     26  H   LIG    1       -3.941  11.706   1.330  0.00  0.00    +0.122 HD
ENDBRANCH  20  24
ENDBRANCH  18  20
ENDBRANCH  17  18
ENDBRANCH  11  15
BRANCH  13  27
ATOM     27  C   LIG    1        0.316   6.219  -5.797  0.00  0.00    +0.063 C 
ATOM     28  C   LIG    1        0.305   4.691  -6.058  0.00  0.00    +0.068 C 
ATOM     29  N   LIG    1        0.876   7.106  -6.545  0.00  0.00    -0.189 NA
BRANCH  29  30
ATOM     30  N   LIG    1        1.535   6.723  -7.692  0.00  0.00    -0.232 N 
ATOM     31  H   LIG    1        1.547   5.735  -7.901  0.00  0.00    +0.172 HD
BRANCH  30  32
ATOM     32  C   LIG    1        2.153   7.578  -8.524  0.00  0.00    +0.199 C 
BRANCH  32  33
ATOM     33  N   LIG    1        2.752   7.075  -9.593  0.00  0.00    -0.293 NA
ATOM     34  H   LIG    1        2.481   6.167  -9.944  0.00  0.00    +0.122 HD
ATOM     35  H   LIG    1        3.479   7.601 -10.057  0.00  0.00    +0.122 HD
ENDBRANCH  32  33
BRANCH  32  36
ATOM     36  N   LIG    1        2.212   8.900  -8.354  0.00  0.00    -0.293 NA
ATOM     37  H   LIG    1        1.772   9.318  -7.546  0.00  0.00    +0.122 HD
ATOM     38  H   LIG    1        2.685   9.478  -9.033  0.00  0.00    +0.122 HD
ENDBRANCH  32  36
ENDBRANCH  30  32
ENDBRANCH  29  30
ENDBRANCH  13  27
ENDBRANCH   7   9
ENDBRANCH   4   6
ENDBRANCH   3   4
ENDBRANCH   2   3
ENDBRANCH   1   2
BRANCH   1  39
ATOM     39  C   LIG    1        1.448  -0.004   0.009  0.00  0.00    +0.000 C 
BRANCH  39  40
ATOM     40  C   LIG    1        1.890  -1.474   0.115  0.00  0.00    +0.000 C 
BRANCH  40  41
ATOM     41  C   LIG    1        3.423  -1.649   0.078  0.00  0.00    +0.009 C 
BRANCH  41  42
ATOM     42  C   LIG    1        3.899  -3.119   0.111  0.00  0.00    +0.096 C 
BRANCH  42  43
ATOM     43  C   LIG    1        3.539  -3.861   1.407  0.00  0.00    +0.217 C 
ATOM     44  N   LIG    1        2.808  -4.986   1.255  0.00  0.00    -0.285 N 
ATOM     45  H   LIG    1        2.637  -5.282   0.305  0.00  0.00    +0.155 HD
ATOM     46  O   LIG    1        3.941  -3.417   2.483  0.00  0.00    -0.275 OA
BRANCH  44  47
ATOM     47  C   LIG    1        2.282  -5.846   2.239  0.00  0.00    +0.035 A 
ATOM     48  C   LIG    1        2.100  -5.492   3.582  0.00  0.00    +0.033 A 
ATOM     49  C   LIG    1        1.550  -6.389   4.513  0.00  0.00    -0.000 A 
ATOM     50  C   LIG    1        1.168  -7.655   4.030  0.00  0.00    +0.019 A 
ATOM     51  C   LIG    1        1.321  -8.052   2.687  0.00  0.00    -0.000 A 
ATOM     52  C   LIG    1        1.885  -7.111   1.809  0.00  0.00    +0.033 A 
BRANCH  49  53
ATOM     53  C   LIG    1        1.349  -6.016   5.947  0.00  0.00    +0.063 C 
ATOM     54  C   LIG    1        2.051  -4.708   6.394  0.00  0.00    +0.068 C 
ATOM     55  N   LIG    1        0.590  -6.752   6.683  0.00  0.00    -0.189 NA
BRANCH  55  56
ATOM     56  N   LIG    1        0.357  -6.402   7.995  0.00  0.00    -0.232 N 
ATOM     57  H   LIG    1        0.818  -5.568   8.331  0.00  0.00    +0.172 HD
BRANCH  56  58
ATOM     58  C   LIG    1       -0.436  -7.095   8.828  0.00  0.00    +0.199 C 
BRANCH  58  59
ATOM     59  N   LIG    1       -0.565  -6.653  10.071  0.00  0.00    -0.293 NA
ATOM     60  H   LIG    1        0.137  -6.043  10.465  0.00  0.00    +0.122 HD
ATOM     61  H   LIG    1       -1.364  -6.930  10.623  0.00  0.00    +0.122 HD
ENDBRANCH  58  59
BRANCH  58  62
ATOM     62  N   LIG    1       -1.109  -8.199   8.498  0.00  0.00    -0.293 NA
ATOM     63  H   LIG    1       -1.044  -8.557   7.556  0.00  0.00    +0.122 HD
ATOM     64  H   LIG    1       -1.679  -8.670   9.186  0.00  0.00    +0.122 HD
ENDBRANCH  58  62
ENDBRANCH  56  58
ENDBRANCH  55  56
ENDBRANCH  49  53
BRANCH  51  65
ATOM     65  C   LIG    1        0.888  -9.409   2.226  0.00  0.00    +0.063 C 
ATOM     66  C   LIG    1        1.240  -9.750   0.755  0.00  0.00    +0.068 C 
ATOM     67  N   LIG    1        0.248 -10.172   3.044  0.00  0.00    -0.189 NA
BRANCH  67  68
ATOM     68  N   LIG    1       -0.188 -11.412   2.634  0.00  0.00    -0.232 N 
ATOM     69  H   LIG    1        0.016 -11.674   1.680  0.00  0.00    +0.172 HD
BRANCH  68  70
ATOM     70  C   LIG    1       -0.861 -12.269   3.420  0.00  0.00    +0.199 C 
BRANCH  70  71
ATOM     71  N   LIG    1       -1.223 -13.432   2.900  0.00  0.00    -0.293 NA
ATOM     72  H   LIG    1       -0.743 -13.793   2.088  0.00  0.00    +0.122 HD
ATOM     73  H   LIG    1       -1.978 -13.957   3.317  0.00  0.00    +0.122 HD
ENDBRANCH  70  71
BRANCH  70  74
ATOM     74  N   LIG    1       -1.194 -12.034   4.691  0.00  0.00    -0.293 NA
ATOM     75  H   LIG    1       -0.935 -11.156   5.117  0.00  0.00    +0.122 HD
ATOM     76  H   LIG    1       -1.687 -12.736   5.224  0.00  0.00    +0.122 HD
ENDBRANCH  70  74
ENDBRANCH  68  70
ENDBRANCH  67  68
ENDBRANCH  51  65
ENDBRANCH  44  47
ENDBRANCH  42  43
ENDBRANCH  41  42
ENDBRANCH  40  41
ENDBRANCH  39  40
ENDBRANCH   1  39
TORSDOF 31
