REMARK  Name = DB12425
REMARK                            x       y       z     vdW  Elec       q    Type
REMARK                         _______ _______ _______ _____ _____    ______ ____
ROOT
ATOM      1  C   LIG    1       -2.738   0.456   0.057  0.00  0.00    +0.155 A 
ATOM      2  C   LIG    1       -1.835   1.521   0.166  0.00  0.00    +0.057 A 
ATOM      3  I   LIG    1       -2.514   3.495   0.338  0.00  0.00    -0.040 I 
ATOM      4  C   LIG    1       -0.462   1.277   0.155  0.00  0.00    +0.021 A 
ATOM      5  C   LIG    1        0.024  -0.029   0.037  0.00  0.00    -0.046 A 
ATOM      6  C   LIG    1       -0.878  -1.091  -0.063  0.00  0.00    +0.021 A 
ATOM      7  C   LIG    1       -2.253  -0.854  -0.051  0.00  0.00    +0.057 A 
ATOM      8  I   LIG    1       -3.567  -2.478  -0.204  0.00  0.00    -0.040 I 
ENDROOT
BRANCH   1   9
ATOM      9  O   LIG    1       -4.093   0.692   0.073  0.00  0.00    -0.454 OA
BRANCH   9  11
ATOM     10  C   LIG    1       -6.129   1.292  -0.980  0.00  0.00    +0.050 A 
ATOM     11  C   LIG    1       -4.783   0.943  -1.097  0.00  0.00    +0.130 A 
ATOM     12  C   LIG    1       -4.214   0.860  -2.380  0.00  0.00    +0.064 A 
ATOM     13  C   LIG    1       -4.979   1.122  -3.517  0.00  0.00    +0.058 A 
ATOM     14  I   LIG    1       -4.067   0.978  -5.398  0.00  0.00    -0.040 I 
ATOM     15  C   LIG    1       -6.327   1.473  -3.384  0.00  0.00    +0.130 A 
ATOM     16  C   LIG    1       -6.898   1.557  -2.113  0.00  0.00    +0.050 A 
BRANCH  15  17
ATOM     17  O   LIG    1       -7.099   1.736  -4.485  0.00  0.00    -0.506 OA
ATOM     18  H   LIG    1       -8.004   1.968  -4.264  0.00  0.00    +0.292 HD
ENDBRANCH  15  17
ENDBRANCH   9  11
ENDBRANCH   1   9
BRANCH   5  19
ATOM     19  C   LIG    1        1.524  -0.293   0.014  0.00  0.00    +0.030 C 
BRANCH  19  20
ATOM     20  CA  LIG    1        2.095  -0.582  -1.399  0.00  0.00    +0.040 C 
BRANCH  20  21
ATOM     21  N   LIG    1        3.517  -1.148  -1.241  0.00  0.00    +0.387 N 
ATOM     22  H1  LIG    1        4.112  -0.468  -0.789  0.00  0.00    -0.089 HD
ATOM     23  H2  LIG    1        3.494  -1.984  -0.675  0.00  0.00    -0.089 HD
ATOM     24  H3  LIG    1        3.902  -1.380  -2.146  0.00  0.00    -0.089 HD
ENDBRANCH  20  21
BRANCH  20  25
ATOM     25  C   LIG    1        2.165   0.690  -2.289  0.00  0.00    +0.290 C 
ATOM     26  O   LIG    1        1.105   1.013  -2.869  0.00  0.00    -0.253 OA
BRANCH  25  27
ATOM     27  OXT LIG    1        3.232   1.342  -2.376  0.00  0.00    -0.482 OA
ATOM     28  HXT LIG    1        3.997   1.053  -1.918  0.00  0.00    +0.295 HD
ENDBRANCH  25  27
ENDBRANCH  20  25
ENDBRANCH  19  20
ENDBRANCH   5  19
TORSDOF 8
