REMARK  Name = DB12602
REMARK                            x       y       z     vdW  Elec       q    Type
REMARK                         _______ _______ _______ _____ _____    ______ ____
ROOT
ATOM      1  CA  PHE A  1        5.147  -0.207   4.646  0.00  0.00    +0.187 C 
ATOM      2  N   PHE A  1        5.875   0.847   5.351  0.00  0.00    -0.300 N 
ATOM      3  H   PHE A  1        6.869   0.832   5.170  0.00  0.00    +0.150 HD
ATOM      4  C   PHE A  1        5.427   1.814   6.178  0.00  0.00    +0.234 C 
ATOM      5  O   PHE A  1        6.218   2.626   6.655  0.00  0.00    -0.274 OA
ATOM      6  CA  PHE A  1        3.936   1.975   6.573  0.00  0.00    +0.159 C 
ATOM      7  N   PHE A  1        3.150   2.781   5.632  0.00  0.00    -0.302 N 
ATOM      8  H   PHE A  1        3.265   3.775   5.768  0.00  0.00    +0.150 HD
ATOM      9  C   PHE A  1        2.270   2.402   4.685  0.00  0.00    +0.234 C 
ATOM     10  O   PHE A  1        2.014   1.238   4.380  0.00  0.00    -0.274 OA
ATOM     11  CA  PHE A  1        1.482   3.536   3.995  0.00  0.00    +0.163 C 
ATOM     12  N   PHE A  1        1.051   3.205   2.631  0.00  0.00    -0.302 N 
ATOM     13  H   PHE A  1        0.053   3.244   2.478  0.00  0.00    +0.150 HD
ATOM     14  C   PHE A  1        1.851   2.985   1.573  0.00  0.00    +0.234 C 
ATOM     15  O   PHE A  1        3.074   2.887   1.637  0.00  0.00    -0.274 OA
ATOM     16  CA  PHE A  1        1.175   2.894   0.197  0.00  0.00    +0.163 C 
ATOM     17  N   PHE A  1       -0.152   2.276   0.238  0.00  0.00    -0.302 N 
ATOM     18  H   PHE A  1       -0.892   2.957   0.145  0.00  0.00    +0.150 HD
ATOM     19  C   PHE A  1       -0.564   0.999   0.383  0.00  0.00    +0.235 C 
ATOM     20  O   PHE A  1       -1.771   0.765   0.407  0.00  0.00    -0.274 OA
ATOM     21  CA  PHE A  1        0.367  -0.240   0.497  0.00  0.00    +0.169 C 
ATOM     22  CB  PHE A  1        0.161  -0.974   1.843  0.00  0.00    +0.112 C 
ATOM     23  SG  PHE A  1        0.470  -2.768   1.801  0.00  0.00    -0.091 S 
ATOM     24  SG  CYS A  2        2.494  -3.014   1.664  0.00  0.00    -0.091 S 
ATOM     25  CB  CYS A  2        3.085  -3.409   3.335  0.00  0.00    +0.112 C 
ATOM     26  CA  CYS A  2        2.944  -2.306   4.408  0.00  0.00    +0.169 C 
ATOM     27  N   CYS A  2        4.095  -2.388   5.310  0.00  0.00    -0.302 N 
ATOM     28  H   CYS A  2        4.107  -3.222   5.880  0.00  0.00    +0.150 HD
ATOM     29  C   PHE A  1        5.112  -1.521   5.467  0.00  0.00    +0.237 C 
ATOM     30  O   PHE A  1        6.030  -1.757   6.250  0.00  0.00    -0.274 OA
ENDROOT
BRANCH  21  31
ATOM     31  N   PHE A  1        1.803  -0.034   0.317  0.00  0.00    -0.302 N 
ATOM     32  H   PHE A  1        2.297   0.296   1.133  0.00  0.00    +0.150 HD
ATOM     33  C   PHE A  1        2.511  -0.340  -0.783  0.00  0.00    +0.234 C 
ATOM     34  O   PHE A  1        2.024  -0.721  -1.848  0.00  0.00    -0.274 OA
BRANCH  33  35
ATOM     35  CA  PHE A  1        4.035  -0.201  -0.629  0.00  0.00    +0.163 C 
BRANCH  35  36
ATOM     36  N   PHE A  1        4.477   1.197  -0.646  0.00  0.00    -0.303 N 
ATOM     37  H   PHE A  1        4.842   1.530   0.234  0.00  0.00    +0.149 HD
ATOM     38  C   UNK A  0        4.441   2.075  -1.669  0.00  0.00    +0.228 C 
ATOM     39  O   UNK A  0        4.004   1.779  -2.780  0.00  0.00    -0.274 OA
BRANCH  38  40
ATOM     40  C   UNK A  0        4.949   3.518  -1.435  0.00  0.00    +0.181 C 
BRANCH  40  41
ATOM     41  N   UNK A  0        5.642   3.704  -0.156  0.00  0.00    -0.283 NA
BRANCH  41  42
ATOM     42  C   UNK A  0        5.522   5.063   0.400  0.00  0.00    +0.205 C 
BRANCH  42  43
ATOM     43  C   UNK A  0        5.683   5.094   1.935  0.00  0.00    +0.319 C 
ATOM     44  O   UNK A  0        5.722   4.105   2.666  0.00  0.00    -0.250 OA
BRANCH  43  45
ATOM     45  O   UNK A  0        5.737   6.381   2.381  0.00  0.00    -0.480 OA
ATOM     46  H   UNK A  0        5.830   6.432   3.335  0.00  0.00    +0.295 HD
ENDBRANCH  43  45
ENDBRANCH  42  43
ENDBRANCH  41  42
BRANCH  41  47
ATOM     47  C   UNK A  0        6.988   3.098  -0.059  0.00  0.00    +0.101 C 
BRANCH  47  48
ATOM     48  C   UNK A  0        8.202   3.953  -0.502  0.00  0.00    +0.100 C 
BRANCH  48  49
ATOM     49  N   UNK A  0        8.164   4.473  -1.877  0.00  0.00    -0.290 NA
BRANCH  49  50
ATOM     50  C   UNK A  0        8.391   3.373  -2.838  0.00  0.00    +0.205 C 
BRANCH  50  51
ATOM     51  C   UNK A  0        8.074   3.771  -4.292  0.00  0.00    +0.319 C 
ATOM     52  O   UNK A  0        8.790   3.439  -5.234  0.00  0.00    -0.250 OA
BRANCH  51  53
ATOM     53  O   UNK A  0        6.910   4.474  -4.418  0.00  0.00    -0.480 OA
ATOM     54  H   UNK A  0        6.713   4.693  -5.332  0.00  0.00    +0.295 HD
ENDBRANCH  51  53
ENDBRANCH  50  51
ENDBRANCH  49  50
BRANCH  49  55
ATOM     55  C   UNK A  0        9.149   5.570  -2.014  0.00  0.00    +0.100 C 
BRANCH  55  56
ATOM     56  C   UNK A  0       10.677   5.254  -1.947  0.00  0.00    +0.101 C 
BRANCH  56  57
ATOM     57  N   UNK A  0       11.162   4.652  -0.685  0.00  0.00    -0.281 NA
BRANCH  57  58
ATOM     58  C   UNK A  0       12.546   4.182  -0.923  0.00  0.00    +0.206 C 
BRANCH  58  59
ATOM     59  C   UNK A  0       12.583   2.824  -1.653  0.00  0.00    +0.319 C 
ATOM     60  O   UNK A  0       11.619   2.070  -1.785  0.00  0.00    -0.250 OA
BRANCH  59  61
ATOM     61  O   UNK A  0       13.843   2.551  -2.096  0.00  0.00    -0.480 OA
ATOM     62  H   UNK A  0       13.897   1.702  -2.541  0.00  0.00    +0.295 HD
ENDBRANCH  59  61
ENDBRANCH  58  59
ENDBRANCH  57  58
BRANCH  57  63
ATOM     63  C   UNK A  0       11.181   5.735   0.322  0.00  0.00    +0.206 C 
BRANCH  63  64
ATOM     64  C   UNK A  0       11.338   5.180   1.748  0.00  0.00    +0.319 C 
ATOM     65  O   UNK A  0       12.204   5.578   2.524  0.00  0.00    -0.250 OA
BRANCH  64  66
ATOM     66  O   UNK A  0       10.393   4.242   2.054  0.00  0.00    -0.480 OA
ATOM     67  H   UNK A  0       10.488   3.903   2.946  0.00  0.00    +0.295 HD
ENDBRANCH  64  66
ENDBRANCH  63  64
ENDBRANCH  57  63
ENDBRANCH  56  57
ENDBRANCH  55  56
ENDBRANCH  49  55
ENDBRANCH  48  49
ENDBRANCH  47  48
ENDBRANCH  41  47
ENDBRANCH  40  41
ENDBRANCH  38  40
ENDBRANCH  35  36
BRANCH  35  68
ATOM     68  CB  PHE A  1        4.839  -1.081  -1.617  0.00  0.00    +0.067 C 
BRANCH  68  69
ATOM     69  CG  PHE A  1        6.324  -1.151  -1.310  0.00  0.00    -0.045 A 
ATOM     70  CD2 PHE A  1        6.790  -1.945  -0.240  0.00  0.00    +0.004 A 
ATOM     71  CE2 PHE A  1        8.132  -1.914   0.114  0.00  0.00    +0.000 A 
ATOM     72  CZ  PHE A  1        9.018  -1.086  -0.566  0.00  0.00    +0.000 A 
ATOM     73  CE1 PHE A  1        8.568  -0.278  -1.603  0.00  0.00    +0.000 A 
ATOM     74  CD1 PHE A  1        7.230  -0.295  -1.972  0.00  0.00    +0.004 A 
ENDBRANCH  68  69
ENDBRANCH  35  68
ENDBRANCH  33  35
ENDBRANCH  21  31
BRANCH  26  75
ATOM     75  C   CYS A  2        1.671  -2.490   5.249  0.00  0.00    +0.235 C 
ATOM     76  N   THR A  3        0.732  -1.536   5.122  0.00  0.00    -0.306 N 
ATOM     77  H   THR A  3        0.936  -0.734   4.543  0.00  0.00    +0.149 HD
ATOM     78  O   CYS A  2        1.556  -3.482   5.970  0.00  0.00    -0.274 OA
BRANCH  76  79
ATOM     79  CA  THR A  3       -0.594  -1.550   5.756  0.00  0.00    +0.126 C 
BRANCH  79  80
ATOM     80  CB  THR A  3       -1.196  -0.112   5.817  0.00  0.00    +0.134 C 
ATOM     81  CG2 THR A  3       -2.515   0.016   6.602  0.00  0.00    +0.039 C 
BRANCH  80  82
ATOM     82  OG1 THR A  3       -0.283   0.786   6.422  0.00  0.00    -0.390 OA
ATOM     83  HG1 THR A  3       -0.125   0.498   7.324  0.00  0.00    +0.210 HD
ENDBRANCH  80  82
ENDBRANCH  79  80
BRANCH  79  84
ATOM     84  C   THR A  3       -1.520  -2.574   5.040  0.00  0.00    +0.180 C 
BRANCH  84  85
ATOM     85  O   THR A  3       -2.609  -2.966   5.849  0.00  0.00    -0.393 OA
ATOM     86  H   THR A  3       -3.126  -3.619   5.372  0.00  0.00    +0.209 HD
ENDBRANCH  84  85
ENDBRANCH  79  84
ENDBRANCH  76  79
ENDBRANCH  26  75
BRANCH   1  88
ATOM     87  CG2 PHE A  1        6.011   0.727   2.400  0.00  0.00    +0.040 C 
ATOM     88  CB  PHE A  1        5.818  -0.517   3.276  0.00  0.00    +0.141 C 
BRANCH  88  89
ATOM     89  OG1 PHE A  1        7.061  -1.188   3.390  0.00  0.00    -0.390 OA
ATOM     90  HG1 PHE A  1        6.922  -2.020   3.849  0.00  0.00    +0.210 HD
ENDBRANCH  88  89
ENDBRANCH   1  88
BRANCH   6  91
ATOM     91  CB  PHE A  1        3.180   0.761   7.169  0.00  0.00    +0.032 C 
BRANCH  91  92
ATOM     92  CG  PHE A  1        3.880   0.096   8.367  0.00  0.00    +0.003 C 
BRANCH  92  93
ATOM     93  CD  PHE A  1        3.101  -1.124   8.887  0.00  0.00    +0.015 C 
BRANCH  93  94
ATOM     94  CE  PHE A  1        3.812  -1.863  10.031  0.00  0.00    +0.077 C 
BRANCH  94  95
ATOM     95  NZ  PHE A  1        3.842  -1.053  11.233  0.00  0.00    -0.330 NA
ATOM     96  HZ1 PHE A  1        2.901  -0.806  11.504  0.00  0.00    +0.118 HD
ATOM     97  HZ2 PHE A  1        4.327  -0.186  11.049  0.00  0.00    +0.118 HD
ENDBRANCH  94  95
ENDBRANCH  93  94
ENDBRANCH  92  93
ENDBRANCH  91  92
ENDBRANCH   6  91
BRANCH  11  98
ATOM     98  CB  PHE A  1        2.188   4.919   4.030  0.00  0.00    +0.069 C 
BRANCH  98  99
ATOM     99  CG  PHE A  1        1.502   6.027   3.283  0.00  0.00    -0.020 A 
ATOM    100  CD2 PHE A  1        0.212   6.654   3.560  0.00  0.00    +0.003 A 
ATOM    101  CE3 PHE A  1       -0.775   6.498   4.563  0.00  0.00    +0.010 A 
ATOM    102  CZ3 PHE A  1       -1.955   7.271   4.554  0.00  0.00    +0.001 A 
ATOM    103  CH2 PHE A  1       -2.178   8.220   3.538  0.00  0.00    +0.002 A 
ATOM    104  CZ2 PHE A  1       -1.219   8.400   2.524  0.00  0.00    +0.026 A 
ATOM    105  CE2 PHE A  1       -0.047   7.623   2.543  0.00  0.00    +0.047 A 
ATOM    106  NE1 PHE A  1        1.054   7.553   1.715  0.00  0.00    -0.360 N 
ATOM    107  HE1 PHE A  1        1.202   8.107   0.884  0.00  0.00    +0.165 HD
ATOM    108  CD1 PHE A  1        1.961   6.611   2.152  0.00  0.00    +0.087 A 
ENDBRANCH  98  99
ENDBRANCH  11  98
BRANCH  16 109
ATOM    109  CB  PHE A  1        1.042   4.315  -0.392  0.00  0.00    +0.067 C 
BRANCH 109 110
ATOM    110  CG  PHE A  1        0.471   4.422  -1.799  0.00  0.00    -0.045 A 
ATOM    111  CD2 PHE A  1        0.876   3.541  -2.826  0.00  0.00    +0.004 A 
ATOM    112  CE2 PHE A  1        0.405   3.715  -4.120  0.00  0.00    +0.000 A 
ATOM    113  CZ  PHE A  1       -0.444   4.773  -4.420  0.00  0.00    +0.000 A 
ATOM    114  CE1 PHE A  1       -0.819   5.673  -3.432  0.00  0.00    +0.000 A 
ATOM    115  CD1 PHE A  1       -0.359   5.515  -2.131  0.00  0.00    +0.004 A 
ENDBRANCH 109 110
ENDBRANCH  16 109
TORSDOF 42
