REMARK  Name = DB12541
REMARK                            x       y       z     vdW  Elec       q    Type
REMARK                         _______ _______ _______ _____ _____    ______ ____
ROOT
ATOM      1  C   LIG    1       -1.190   1.665   1.244  0.00  0.00    -0.050 C 
ATOM      2  C   LIG    1       -1.821   0.290   1.632  0.00  0.00    +0.067 C 
ATOM      3  C   LIG    1       -2.308   0.179   3.054  0.00  0.00    -0.012 A 
ATOM      4  C   LIG    1       -1.649   0.365   4.273  0.00  0.00    +0.008 A 
ATOM      5  C   LIG    1       -2.346   0.175   5.469  0.00  0.00    +0.020 A 
ATOM      6  C   LIG    1       -3.695  -0.193   5.447  0.00  0.00    +0.043 A 
ATOM      7 CL   LIG    1       -4.548  -0.427   6.929  0.00  0.00    -0.083 Cl
ATOM      8  C   LIG    1       -4.354  -0.369   4.227  0.00  0.00    +0.043 A 
ATOM      9  C   LIG    1       -3.643  -0.178   3.043  0.00  0.00    +0.039 A 
ATOM     10  N   LIG    1       -4.082  -0.287   1.735  0.00  0.00    -0.284 N 
ATOM     11  H   LIG    1       -5.029  -0.524   1.479  0.00  0.00    +0.155 HD
ATOM     12  C   LIG    1       -3.123  -0.017   0.832  0.00  0.00    +0.227 C 
ATOM     13  O   LIG    1       -3.244  -0.021  -0.393  0.00  0.00    -0.275 OA
ATOM     14  C   LIG    1       -0.675  -0.694   1.254  0.00  0.00    +0.034 C 
ATOM     15  C   LIG    1       -0.016  -0.130  -0.035  0.00  0.00    +0.025 C 
ATOM     16  N   LIG    1       -0.380   1.368  -0.033  0.00  0.00    +0.390 N 
ATOM     17  H   LIG    1        0.450   1.943  -0.074  0.00  0.00    -0.084 HD
ATOM     18  H   LIG    1       -0.943   1.588  -0.843  0.00  0.00    -0.084 HD
ENDROOT
BRANCH  14  19
ATOM     19  C   LIG    1       -0.977  -2.208   1.268  0.00  0.00    -0.008 A 
ATOM     20  C   LIG    1       -1.498  -2.845   0.132  0.00  0.00    +0.007 A 
ATOM     21  C   LIG    1       -1.780  -4.210   0.146  0.00  0.00    +0.002 A 
ATOM     22  C   LIG    1       -1.544  -4.959   1.296  0.00  0.00    +0.023 A 
ATOM     23  C   LIG    1       -1.027  -4.343   2.435  0.00  0.00    +0.076 A 
ATOM     24 CL   LIG    1       -0.742  -5.285   3.855  0.00  0.00    -0.081 Cl
ATOM     25  C   LIG    1       -0.743  -2.973   2.424  0.00  0.00    +0.145 A 
ATOM     26  F   LIG    1       -0.244  -2.394   3.542  0.00  0.00    -0.204 F 
ENDBRANCH  14  19
BRANCH  15  27
ATOM     27  C   LIG    1        1.523  -0.274  -0.011  0.00  0.00    +0.200 C 
ATOM     28  N   LIG    1        1.998  -1.419  -0.534  0.00  0.00    -0.314 N 
ATOM     29  H   LIG    1        1.333  -2.102  -0.866  0.00  0.00    +0.149 HD
ATOM     30  O   LIG    1        2.248   0.592   0.488  0.00  0.00    -0.278 OA
BRANCH  28  31
ATOM     31  C   LIG    1        3.402  -1.834  -0.564  0.00  0.00    +0.073 C 
ATOM     32  C   LIG    1        3.682  -2.936  -1.613  0.00  0.00    +0.025 C 
ATOM     33  C   LIG    1        5.151  -3.401  -1.653  0.00  0.00    +0.033 C 
ATOM     34  C   LIG    1        5.700  -3.773  -0.263  0.00  0.00    +0.115 C 
ATOM     35  C   LIG    1        5.477  -2.643   0.760  0.00  0.00    +0.033 C 
ATOM     36  C   LIG    1        4.011  -2.171   0.822  0.00  0.00    +0.025 C 
BRANCH  34  37
ATOM     37  O   LIG    1        7.067  -4.121  -0.337  0.00  0.00    -0.392 OA
ATOM     38  H   LIG    1        7.562  -3.355  -0.636  0.00  0.00    +0.210 HD
ENDBRANCH  34  37
ENDBRANCH  28  31
ENDBRANCH  15  27
BRANCH   1  39
ATOM     39  C   LIG    1       -2.169   2.875   1.181  0.00  0.00    -0.008 C 
BRANCH  39  41
ATOM     40  C   LIG    1       -2.735   5.325   1.114  0.00  0.00    +0.010 C 
ATOM     41  C   LIG    1       -1.567   4.315   1.216  0.00  0.00    -0.039 C 
ATOM     42  C   LIG    1       -0.819   4.568   2.546  0.00  0.00    +0.010 C 
ATOM     43  C   LIG    1       -0.604   4.568   0.033  0.00  0.00    +0.010 C 
ENDBRANCH  39  41
ENDBRANCH   1  39
TORSDOF 6
