REMARK  Name = DB12629
REMARK                            x       y       z     vdW  Elec       q    Type
REMARK                         _______ _______ _______ _____ _____    ______ ____
ROOT
ATOM      1  C   LIG    1        1.433   0.117   0.016  0.00  0.00    +0.155 A 
ATOM      2  C   LIG    1        2.156   0.055  -1.182  0.00  0.00    +0.057 A 
ATOM      3  I   LIG    1        1.176   0.089  -3.032  0.00  0.00    -0.040 I 
ATOM      4  C   LIG    1        3.548  -0.028  -1.154  0.00  0.00    +0.021 A 
ATOM      5  C   LIG    1        4.231  -0.054   0.065  0.00  0.00    -0.045 A 
ATOM      6  C   LIG    1        3.509   0.001   1.260  0.00  0.00    +0.021 A 
ATOM      7  C   LIG    1        2.116   0.083   1.239  0.00  0.00    +0.057 A 
ATOM      8  I   LIG    1        1.075   0.156   3.055  0.00  0.00    -0.040 I 
ENDROOT
BRANCH   1   9
ATOM      9  O   LIG    1        0.060   0.193  -0.009  0.00  0.00    -0.454 OA
BRANCH   9  14
ATOM     10  C   LIG    1       -2.713   2.571  -0.011  0.00  0.00    +0.049 A 
ATOM     11  C   LIG    1       -2.045   3.794  -0.019  0.00  0.00    +0.117 A 
ATOM     12  C   LIG    1       -0.653   3.838  -0.028  0.00  0.00    +0.049 A 
ATOM     13  C   LIG    1        0.076   2.652  -0.026  0.00  0.00    +0.050 A 
ATOM     14  C   LIG    1       -0.588   1.414  -0.014  0.00  0.00    +0.129 A 
ATOM     15  C   LIG    1       -1.983   1.386  -0.009  0.00  0.00    +0.050 A 
BRANCH  11  16
ATOM     16  O   LIG    1       -2.763   4.960  -0.018  0.00  0.00    -0.507 OA
ATOM     17  H   LIG    1       -2.205   5.742  -0.015  0.00  0.00    +0.292 HD
ENDBRANCH  11  16
ENDBRANCH   9  14
ENDBRANCH   1   9
BRANCH   5  18
ATOM     18  C   LIG    1        5.750  -0.138   0.088  0.00  0.00    +0.046 C 
BRANCH  18  19
ATOM     19  C   LIG    1        6.425   1.253  -0.038  0.00  0.00    +0.125 C 
BRANCH  19  20
ATOM     20  C   LIG    1        7.972   1.232  -0.102  0.00  0.00    +0.305 C 
ATOM     21  O   LIG    1        8.526   2.329  -0.340  0.00  0.00    -0.251 OA
BRANCH  20  22
ATOM     22  O   LIG    1        8.595   0.162   0.093  0.00  0.00    -0.481 OA
ATOM     23  H   LIG    1        8.124  -0.629   0.267  0.00  0.00    +0.295 HD
ENDBRANCH  20  22
ENDBRANCH  19  20
ENDBRANCH  18  19
ENDBRANCH   5  18
TORSDOF 7
