REMARK  Name = DB12765
REMARK                            x       y       z     vdW  Elec       q    Type
REMARK                         _______ _______ _______ _____ _____    ______ ____
ROOT
ATOM      1  C   LIG    1       -0.071   0.022   0.000  0.00  0.00    +0.185 C 
ATOM      2  N   LIG    1        1.336  -0.244   0.000  0.00  0.00    -0.209 NA
ATOM      3  C   LIG    1        2.131  -1.178   0.000  0.00  0.00    +0.234 C 
ATOM      4  O   LIG    1        2.772  -2.169   0.000  0.00  0.00    -0.210 OA
ENDROOT
TORSDOF 0
