REMARK  Name = DB12444
REMARK                            x       y       z     vdW  Elec       q    Type
REMARK                         _______ _______ _______ _____ _____    ______ ____
ROOT
ATOM      1  CA  LIG    1       -0.516   1.558  -0.067  0.00  0.00    +0.036 C 
ENDROOT
BRANCH   1   2
ATOM      2  N   LIG    1       -1.917   1.508   0.569  0.00  0.00    +0.387 N 
ATOM      3  H1  LIG    1       -2.555   1.012  -0.037  0.00  0.00    -0.089 HD
ATOM      4  H2  LIG    1       -1.874   1.027   1.456  0.00  0.00    -0.089 HD
ATOM      5  H3  LIG    1       -2.262   2.444   0.724  0.00  0.00    -0.089 HD
ENDBRANCH   1   2
BRANCH   1   6
ATOM      6  C   LIG    1       -0.618   2.327  -1.414  0.00  0.00    +0.290 C 
ATOM      7  O   LIG    1        0.444   2.837  -1.835  0.00  0.00    -0.253 OA
BRANCH   6   8
ATOM      8  OXT LIG    1       -1.711   2.394  -2.025  0.00  0.00    -0.482 OA
ATOM      9  HXT LIG    1       -2.476   1.993  -1.661  0.00  0.00    +0.295 HD
ENDBRANCH   6   8
ENDBRANCH   1   6
BRANCH   1  10
ATOM     10  C   LIG    1       -0.009   0.103  -0.246  0.00  0.00    +0.004 C 
BRANCH  10  11
ATOM     11  C   LIG    1        1.515  -0.013  -0.495  0.00  0.00    +0.095 C 
BRANCH  11  12
ATOM     12  C   LIG    1        2.035  -1.458  -0.576  0.00  0.00    +0.213 C 
ATOM     13  N   LIG    1        3.180  -1.634  -1.260  0.00  0.00    -0.316 N 
ATOM     14  H   LIG    1        3.616  -0.829  -1.685  0.00  0.00    +0.149 HD
ATOM     15  O   LIG    1        1.427  -2.380  -0.028  0.00  0.00    -0.276 OA
BRANCH  13  16
ATOM     16  C   LIG    1        3.856  -2.915  -1.457  0.00  0.00    +0.101 C 
ATOM     17  C   LIG    1        4.633  -3.392  -0.220  0.00  0.00    +0.024 C 
ENDBRANCH  13  16
ENDBRANCH  11  12
ENDBRANCH  10  11
ENDBRANCH   1  10
TORSDOF 7
