REMARK  Name = DB12035
REMARK                            x       y       z     vdW  Elec       q    Type
REMARK                         _______ _______ _______ _____ _____    ______ ____
ROOT
ATOM      1  C   LIG    1       -2.729   0.239  -0.361  0.00  0.00    +0.128 A 
ATOM      2  C   LIG    1       -2.144  -1.036  -0.144  0.00  0.00    +0.067 A 
ATOM      3  C   LIG    1       -3.011  -2.292  -0.087  0.00  0.00    +0.196 C 
ATOM      4  O   LIG    1       -4.241  -2.211  -0.065  0.00  0.00    -0.287 OA
ATOM      5  C   LIG    1       -2.289  -3.604  -0.122  0.00  0.00    +0.044 C 
ATOM      6  C   LIG    1       -2.932  -4.786   0.129  0.00  0.00    +0.141 C 
ATOM      7  C   LIG    1       -2.293  -6.205   0.023  0.00  0.00    +0.190 C 
ATOM      8  C   LIG    1       -2.071  -6.833   1.437  0.00  0.00    +0.211 C 
ATOM      9  O   LIG    1       -2.945  -6.747   2.305  0.00  0.00    -0.288 OA
ATOM     10  C   LIG    1       -0.778  -7.534   1.703  0.00  0.00    +0.121 C 
ATOM     11  C   LIG    1        0.076  -7.803   0.672  0.00  0.00    +0.127 C 
ATOM     12  C   LIG    1       -0.161  -7.441  -0.807  0.00  0.00    +0.129 C 
ATOM     13  C   LIG    1       -0.969  -6.103  -0.806  0.00  0.00    +0.061 C 
ATOM     14  C   LIG    1       -0.111  -4.918  -0.303  0.00  0.00    +0.018 C 
ATOM     15  C   LIG    1       -0.800  -3.555  -0.513  0.00  0.00    +0.031 C 
ATOM     16  C   LIG    1       -0.097  -2.461   0.303  0.00  0.00    +0.044 C 
ATOM     17  C   LIG    1       -0.736  -1.103   0.027  0.00  0.00    -0.028 A 
ATOM     18  C   LIG    1        0.039   0.075  -0.043  0.00  0.00    -0.027 A 
ATOM     19  C   LIG    1       -0.573   1.305  -0.264  0.00  0.00    +0.009 A 
ATOM     20  C   LIG    1       -1.945   1.386  -0.419  0.00  0.00    +0.046 A 
ENDROOT
BRANCH  10  21
ATOM     21  C   LIG    1       -0.393  -7.926   3.055  0.00  0.00    +0.248 C 
ATOM     22  N   LIG    1       -1.276  -8.681   3.719  0.00  0.00    -0.325 N 
ATOM     23  H   LIG    1       -2.158  -8.926   3.293  0.00  0.00    +0.145 HD
ATOM     24  H   LIG    1       -1.070  -8.996   4.655  0.00  0.00    +0.145 HD
ATOM     25  O   LIG    1        0.683  -7.610   3.561  0.00  0.00    -0.270 OA
ENDBRANCH  10  21
BRANCH  12  26
ATOM     26  N   LIG    1       -0.763  -8.551  -1.589  0.00  0.00    -0.299 NA
ATOM     27  C   LIG    1       -0.814  -8.246  -3.021  0.00  0.00    +0.105 C 
ATOM     28  C   LIG    1       -0.073  -9.836  -1.448  0.00  0.00    +0.105 C 
ENDBRANCH  12  26
BRANCH   1  29
ATOM     29  O   LIG    1       -4.077   0.435  -0.545  0.00  0.00    -0.506 OA
ATOM     30  H   LIG    1       -4.306   1.355  -0.689  0.00  0.00    +0.292 HD
ENDBRANCH   1  29
BRANCH   6  31
ATOM     31  O   LIG    1       -4.244  -4.887   0.509  0.00  0.00    -0.507 OA
ATOM     32  H   LIG    1       -4.472  -5.813   0.618  0.00  0.00    +0.292 HD
ENDBRANCH   6  31
BRANCH   7  33
ATOM     33  O   LIG    1       -3.188  -7.069  -0.669  0.00  0.00    -0.373 OA
ATOM     34  H   LIG    1       -2.713  -7.872  -0.899  0.00  0.00    +0.211 HD
ENDBRANCH   7  33
BRANCH  11  35
ATOM     35  O   LIG    1        1.311  -8.377   0.796  0.00  0.00    -0.509 OA
ATOM     36  H   LIG    1        1.715  -8.460  -0.070  0.00  0.00    +0.292 HD
ENDBRANCH  11  35
BRANCH  18  37
ATOM     37  C   LIG    1        1.559   0.064   0.136  0.00  0.00    +0.149 C 
BRANCH  37  38
ATOM     38  N   LIG    1        2.271  -0.421  -1.050  0.00  0.00    -0.187 NA
ATOM     39  C   LIG    1        3.707  -0.486  -0.813  0.00  0.00    +0.138 C 
BRANCH  38  40
ATOM     40  O   LIG    1        2.090   0.560  -2.083  0.00  0.00    -0.300 OA
ATOM     41  C   LIG    1        1.511  -0.067  -3.217  0.00  0.00    +0.221 C 
ENDBRANCH  38  40
ENDBRANCH  37  38
ENDBRANCH  18  37
TORSDOF 9
