REMARK  Name = DB12716
REMARK                            x       y       z     vdW  Elec       q    Type
REMARK                         _______ _______ _______ _____ _____    ______ ____
ROOT
ATOM      1  C   LIG    1       -1.786   5.226   1.655  0.00  0.00    +0.225 A 
ATOM      2  N   LIG    1       -1.847   4.217   0.771  0.00  0.00    -0.216 NA
ATOM      3  C   LIG    1       -2.514   3.153   1.282  0.00  0.00    +0.165 A 
ATOM      4  N   LIG    1       -2.787   1.944   0.708  0.00  0.00    -0.317 N 
ATOM      5  C   LIG    1       -3.483   1.236   1.619  0.00  0.00    +0.201 A 
ATOM      6  N   LIG    1       -3.669   1.886   2.742  0.00  0.00    -0.231 NA
ATOM      7  C   LIG    1       -3.076   3.077   2.546  0.00  0.00    +0.147 A 
ATOM      8  C   LIG    1       -2.942   4.208   3.384  0.00  0.00    +0.147 A 
ATOM      9  N   LIG    1       -2.277   5.293   2.901  0.00  0.00    -0.219 NA
ENDROOT
BRANCH   8  10
ATOM     10  N   LIG    1       -3.459   4.262   4.677  0.00  0.00    -0.341 N 
ATOM     11  H   LIG    1       -3.336   5.102   5.224  0.00  0.00    +0.144 HD
ATOM     12  H   LIG    1       -3.965   3.469   5.044  0.00  0.00    +0.144 HD
ENDBRANCH   8  10
BRANCH   4  13
ATOM     13  C   LIG    1       -2.411   1.494  -0.646  0.00  0.00    +0.106 C 
BRANCH  13  14
ATOM     14  C   LIG    1       -0.883   1.394  -0.841  0.00  0.00    -0.061 C 
BRANCH  14  15
ATOM     15  N   LIG    1       -0.298   0.286   0.052  0.00  0.00    +0.380 N 
ATOM     16  H   LIG    1       -0.754  -0.588  -0.168  0.00  0.00    -0.086 HD
ATOM     17  H   LIG    1       -0.499   0.510   1.017  0.00  0.00    -0.086 HD
BRANCH  15  18
ATOM     18  C   LIG    1        1.219   0.107  -0.107  0.00  0.00    -0.083 C 
BRANCH  18  19
ATOM     19  C   LIG    1        1.702  -0.992   0.854  0.00  0.00    -0.019 C 
BRANCH  19  20
ATOM     20  C   LIG    1        3.201  -1.320   0.725  0.00  0.00    +0.000 C 
BRANCH  20  21
ATOM     21  C   LIG    1        4.144  -0.160   1.113  0.00  0.00    +0.028 C 
BRANCH  21  22
ATOM     22  C   LIG    1        5.642  -0.503   1.024  0.00  0.00    +0.156 C 
BRANCH  22  23
ATOM     23  O   LIG    1        5.979  -1.554   1.907  0.00  0.00    -0.395 OA
ATOM     24  H   LIG    1        6.916  -1.746   1.811  0.00  0.00    +0.209 HD
ENDBRANCH  22  23
ENDBRANCH  21  22
ENDBRANCH  20  21
ENDBRANCH  19  20
ENDBRANCH  18  19
ENDBRANCH  15  18
ENDBRANCH  14  15
ENDBRANCH  13  14
ENDBRANCH   4  13
TORSDOF 10
