REMARK  Name = DB12448
REMARK                            x       y       z     vdW  Elec       q    Type
REMARK                         _______ _______ _______ _____ _____    ______ ____
ROOT
ATOM      1  C   LIG    1        1.667   0.031   0.031  0.00  0.00    +0.152 C 
ENDROOT
BRANCH   1   2
ATOM      2  O   LIG    1        2.220   0.791   1.089  0.00  0.00    -0.388 OA
ATOM      3  H   LIG    1        1.875   1.685   1.035  0.00  0.00    +0.210 HD
ENDBRANCH   1   2
BRANCH   1   4
ATOM      4  C   LIG    1        0.124   0.078   0.101  0.00  0.00    +0.039 C 
BRANCH   4   5
ATOM      5  C   LIG    1       -0.472   1.493  -0.053  0.00  0.00    +0.038 C 
BRANCH   5   9
ATOM      6  C   LIG    1       -4.803   1.463  -0.057  0.00  0.00    -0.042 A 
ATOM      7  C   LIG    1       -4.084   1.486   1.148  0.00  0.00    +0.004 A 
ATOM      8  C   LIG    1       -2.692   1.499   1.151  0.00  0.00    +0.004 A 
ATOM      9  C   LIG    1       -1.994   1.489  -0.056  0.00  0.00    -0.047 A 
ATOM     10  C   LIG    1       -2.692   1.468  -1.263  0.00  0.00    +0.004 A 
ATOM     11  C   LIG    1       -4.085   1.456  -1.263  0.00  0.00    +0.004 A 
BRANCH   6  13
ATOM     12  C   LIG    1       -6.838   0.175   0.731  0.00  0.00    +0.015 C 
ATOM     13  C   LIG    1       -6.353   1.443  -0.015  0.00  0.00    -0.013 C 
ATOM     14  C   LIG    1       -6.874   2.700   0.726  0.00  0.00    +0.015 C 
ATOM     15  C   LIG    1       -7.006   1.432  -1.424  0.00  0.00    +0.015 C 
ENDBRANCH   6  13
ENDBRANCH   5   9
ENDBRANCH   4   5
ENDBRANCH   1   4
BRANCH   1  16
ATOM     16  C   LIG    1        2.225  -1.402   0.116  0.00  0.00    +0.260 C 
BRANCH  16  17
ATOM     17  O   LIG    1        1.830  -2.132  -1.044  0.00  0.00    -0.489 OA
BRANCH  17  18
ATOM     18  C   LIG    1        2.169  -3.466  -1.153  0.00  0.00    +0.121 A 
ATOM     19  C   LIG    1        2.941  -4.166  -0.216  0.00  0.00    +0.046 A 
ATOM     20  C   LIG    1        3.231  -5.513  -0.410  0.00  0.00    +0.018 A 
ATOM     21  C   LIG    1        2.763  -6.206  -1.542  0.00  0.00    +0.059 A 
ATOM     22  C   LIG    1        1.992  -5.486  -2.473  0.00  0.00    +0.018 A 
ATOM     23  C   LIG    1        1.702  -4.138  -2.279  0.00  0.00    +0.046 A 
BRANCH  21  24
ATOM     24  C   LIG    1        3.079  -7.674  -1.750  0.00  0.00    +0.337 C 
ATOM     25  O   LIG    1        3.787  -8.267  -0.902  0.00  0.00    -0.245 OA
BRANCH  24  26
ATOM     26  O   LIG    1        2.621  -8.253  -2.765  0.00  0.00    -0.477 OA
ATOM     27  H   LIG    1        2.806  -9.160  -2.910  0.00  0.00    +0.295 HD
ENDBRANCH  24  26
ENDBRANCH  21  24
ENDBRANCH  17  18
ENDBRANCH  16  17
ENDBRANCH   1  16
TORSDOF 10
