REMARK  Name = DB12464
REMARK                            x       y       z     vdW  Elec       q    Type
REMARK                         _______ _______ _______ _____ _____    ______ ____
ROOT
ATOM      1  C   LIG    1       -1.968   0.367   0.030  0.00  0.00    +0.162 A 
ATOM      2  C   LIG    1       -2.271  -0.632  -0.908  0.00  0.00    +0.172 A 
ATOM      3  C   LIG    1       -1.254  -1.226  -1.658  0.00  0.00    +0.050 A 
ATOM      4  C   LIG    1        0.072  -0.845  -1.472  0.00  0.00    +0.005 A 
ATOM      5  C   LIG    1        0.395   0.135  -0.530  0.00  0.00    -0.061 A 
ATOM      6  C   LIG    1       -0.625   0.741   0.210  0.00  0.00    +0.051 A 
ENDROOT
BRANCH   1   8
ATOM      7  C   LIG    1       -2.769   1.928   1.702  0.00  0.00    +0.277 C 
ATOM      8  O   LIG    1       -3.026   0.929   0.722  0.00  0.00    -0.491 OA
ENDBRANCH   1   8
BRANCH   2   9
ATOM      9  O   LIG    1       -3.572  -1.023  -1.140  0.00  0.00    -0.433 OA
BRANCH   9  10
ATOM     10  C   LIG    1       -4.289  -1.762  -0.215  0.00  0.00    +0.239 A 
ATOM     11  N   LIG    1       -3.671  -2.232   0.908  0.00  0.00    -0.217 NA
ATOM     12  C   LIG    1       -4.423  -2.943   1.789  0.00  0.00    +0.147 A 
ATOM     13  C   LIG    1       -5.786  -3.194   1.566  0.00  0.00    +0.143 A 
ATOM     14  N   LIG    1       -6.395  -2.723   0.437  0.00  0.00    -0.244 NA
ATOM     15  C   LIG    1       -5.644  -2.012  -0.443  0.00  0.00    +0.179 A 
BRANCH  13  16
ATOM     16  C   LIG    1       -6.602  -3.985   2.564  0.00  0.00    +0.261 C 
ATOM     17  N   LIG    1       -7.893  -4.195   2.280  0.00  0.00    -0.324 N 
ATOM     18  H   LIG    1       -8.475  -4.716   2.919  0.00  0.00    +0.145 HD
ATOM     19  H   LIG    1       -8.288  -3.838   1.422  0.00  0.00    +0.145 HD
ATOM     20  O   LIG    1       -6.099  -4.418   3.600  0.00  0.00    -0.269 OA
ENDBRANCH  13  16
ENDBRANCH   9  10
ENDBRANCH   2   9
BRANCH   5  21
ATOM     21  C   LIG    1        1.839   0.576  -0.345  0.00  0.00    -0.047 C 
BRANCH  21  22
ATOM     22  N   LIG    1        2.568  -0.118   0.818  0.00  0.00    +0.382 N 
ATOM     23  H   LIG    1        2.014  -0.013   1.656  0.00  0.00    -0.085 HD
ATOM     24  H   LIG    1        3.447   0.357   0.969  0.00  0.00    -0.085 HD
BRANCH  22  25
ATOM     25  C   LIG    1        2.860  -1.611   0.594  0.00  0.00    -0.082 C 
BRANCH  25  26
ATOM     26  C   LIG    1        3.619  -2.164   1.811  0.00  0.00    -0.016 C 
BRANCH  26  27
ATOM     27  C   LIG    1        4.079  -3.631   1.657  0.00  0.00    -0.008 C 
ATOM     28  C   LIG    1        4.934  -4.093   2.857  0.00  0.00    +0.031 C 
ATOM     29  C   LIG    1        5.368  -5.565   2.700  0.00  0.00    +0.160 C 
ATOM     30  O   LIG    1        4.217  -6.392   2.530  0.00  0.00    -0.380 OA
ATOM     31  C   LIG    1        3.441  -6.081   1.372  0.00  0.00    +0.160 C 
ATOM     32  C   LIG    1        2.917  -4.633   1.463  0.00  0.00    +0.031 C 
ENDBRANCH  26  27
ENDBRANCH  25  26
ENDBRANCH  22  25
ENDBRANCH  21  22
ENDBRANCH   5  21
TORSDOF 9
