REMARK  Name = DB12332
REMARK                            x       y       z     vdW  Elec       q    Type
REMARK                         _______ _______ _______ _____ _____    ______ ____
ROOT
ATOM      1  C   LIG    1        3.393  -5.444  -0.016  0.00  0.00    +0.051 A 
ATOM      2  N   LIG    1        3.035  -6.332  -1.003  0.00  0.00    -0.354 N 
ATOM      3  H   LIG    1        2.420  -6.070  -1.759  0.00  0.00    +0.166 HD
ATOM      4  C   LIG    1        3.608  -7.564  -0.795  0.00  0.00    +0.051 A 
ATOM      5  C   LIG    1        3.521  -8.746  -1.533  0.00  0.00    +0.064 A 
ATOM      6  C   LIG    1        4.228  -9.842  -1.051  0.00  0.00    +0.126 A 
ATOM      7  F   LIG    1        4.177 -11.009  -1.732  0.00  0.00    -0.205 F 
ATOM      8  C   LIG    1        4.981  -9.769   0.117  0.00  0.00    +0.052 A 
ATOM      9  C   LIG    1        5.078  -8.589   0.874  0.00  0.00    +0.049 A 
ATOM     10  C   LIG    1        5.895  -8.678   2.152  0.00  0.00    +0.245 C 
ATOM     11  N   LIG    1        6.484  -7.558   2.622  0.00  0.00    -0.311 N 
ATOM     12  H   LIG    1        6.997  -7.710   3.478  0.00  0.00    +0.149 HD
ATOM     13  C   LIG    1        6.414  -6.163   2.184  0.00  0.00    +0.109 C 
ATOM     14  C   LIG    1        4.998  -5.572   2.066  0.00  0.00    +0.056 C 
ATOM     15  O   LIG    1        6.035  -9.757   2.730  0.00  0.00    -0.270 OA
ATOM     16  C   LIG    1        4.378  -7.456   0.398  0.00  0.00    +0.016 A 
ATOM     17  C   LIG    1        4.258  -6.099   0.860  0.00  0.00    -0.012 A 
ENDROOT
BRANCH   1  21
ATOM     18  C   LIG    1        1.937  -1.408  -0.029  0.00  0.00    -0.034 A 
ATOM     19  C   LIG    1        2.137  -2.075   1.182  0.00  0.00    +0.005 A 
ATOM     20  C   LIG    1        2.610  -3.384   1.184  0.00  0.00    +0.010 A 
ATOM     21  C   LIG    1        2.888  -4.037  -0.021  0.00  0.00    -0.001 A 
ATOM     22  C   LIG    1        2.681  -3.365  -1.231  0.00  0.00    +0.010 A 
ATOM     23  C   LIG    1        2.209  -2.055  -1.236  0.00  0.00    +0.005 A 
BRANCH  18  24
ATOM     24  C   LIG    1        1.426   0.023  -0.032  0.00  0.00    +0.116 C 
BRANCH  24  26
ATOM     25  C   LIG    1       -0.513   1.411   0.074  0.00  0.00    +0.101 C 
ATOM     26  N   LIG    1       -0.030   0.044  -0.042  0.00  0.00    -0.315 NA
ATOM     27  H   LIG    1       -0.357  -0.333  -0.920  0.00  0.00    +0.122 HD
ENDBRANCH  24  26
ENDBRANCH  18  24
ENDBRANCH   1  21
TORSDOF 3
