REMARK  Name = DB12308
REMARK                            x       y       z     vdW  Elec       q    Type
REMARK                         _______ _______ _______ _____ _____    ______ ____
ROOT
ATOM      1  C   LIG    1       -4.473  -0.574   5.681  0.00  0.00    +0.032 C 
ATOM      2  C   LIG    1       -3.590  -1.834   5.662  0.00  0.00    +0.010 C 
ATOM      3  C   LIG    1       -3.435  -2.479   4.249  0.00  0.00    -0.026 C 
ATOM      4  C   LIG    1       -2.648  -3.807   4.473  0.00  0.00    +0.012 C 
ATOM      5  C   LIG    1       -2.714  -1.545   3.200  0.00  0.00    -0.001 C 
ATOM      6  C   LIG    1       -1.327  -0.996   3.667  0.00  0.00    +0.005 C 
ATOM      7  C   LIG    1       -0.620  -0.137   2.590  0.00  0.00    +0.008 C 
ATOM      8  C   LIG    1       -0.483  -0.899   1.246  0.00  0.00    -0.019 C 
ATOM      9  C   LIG    1        0.450  -2.148   1.403  0.00  0.00    +0.012 C 
ATOM     10  C   LIG    1       -0.086  -0.012   0.027  0.00  0.00    +0.061 C 
ATOM     11  C   LIG    1       -0.629  -0.775  -1.212  0.00  0.00    +0.012 C 
ATOM     12  C   LIG    1       -1.792  -1.643  -0.691  0.00  0.00    +0.005 C 
ATOM     13  C   LIG    1       -1.921  -1.255   0.790  0.00  0.00    -0.001 C 
ATOM     14  C   LIG    1       -2.644  -2.209   1.779  0.00  0.00    -0.004 C 
ATOM     15  C   LIG    1       -4.069  -2.573   1.289  0.00  0.00    +0.004 C 
ATOM     16  C   LIG    1       -4.831  -3.453   2.302  0.00  0.00    +0.004 C 
ATOM     17  C   LIG    1       -4.878  -2.820   3.721  0.00  0.00    -0.002 C 
ATOM     18  C   LIG    1       -5.837  -1.593   3.770  0.00  0.00    +0.035 C 
ATOM     19  C   LIG    1       -5.883  -0.885   5.140  0.00  0.00    +0.115 C 
ENDROOT
BRANCH  10  20
ATOM     20  C   LIG    1        1.421   0.323  -0.061  0.00  0.00    +0.134 C 
ATOM     21  O   LIG    1        2.217  -0.368  -0.697  0.00  0.00    -0.297 OA
ATOM     22  C   LIG    1        1.889   1.596   0.636  0.00  0.00    +0.086 C 
ENDBRANCH  10  20
BRANCH  19  23
ATOM     23  O   LIG    1       -6.668   0.288   5.078  0.00  0.00    -0.392 OA
ATOM     24  H   LIG    1       -6.257   0.898   4.461  0.00  0.00    +0.210 HD
ENDBRANCH  19  23
TORSDOF 2
