REMARK  Name = DB12244
REMARK                            x       y       z     vdW  Elec       q    Type
REMARK                         _______ _______ _______ _____ _____    ______ ____
ROOT
ATOM      1  C   LIG    1       -0.665   1.244  -0.067  0.00  0.00    +0.012 A 
ATOM      2  C   LIG    1        0.038   0.029  -0.056  0.00  0.00    +0.055 A 
ATOM      3  C   LIG    1       -0.677  -1.177  -0.032  0.00  0.00    +0.016 A 
ATOM      4  C   LIG    1       -2.072  -1.157  -0.017  0.00  0.00    -0.042 A 
ATOM      5  C   LIG    1       -3.095  -2.284   0.013  0.00  0.00    +0.003 C 
ATOM      6  C   LIG    1       -3.548  -2.684   1.449  0.00  0.00    -0.074 C 
ATOM      7  N   LIG    1       -4.012  -1.443   2.254  0.00  0.00    +0.380 N 
ATOM      8  H   LIG    1       -4.525  -1.729   3.076  0.00  0.00    -0.086 HD
ATOM      9  H   LIG    1       -3.181  -0.971   2.582  0.00  0.00    -0.086 HD
ATOM     10  C   LIG    1       -4.834  -0.410   1.438  0.00  0.00    -0.074 C 
ATOM     11  C   LIG    1       -4.253  -0.239   0.003  0.00  0.00    +0.003 C 
ATOM     12  C   LIG    1       -4.256  -1.595  -0.712  0.00  0.00    +0.012 C 
ATOM     13  C   LIG    1       -2.761   0.059  -0.025  0.00  0.00    -0.043 A 
ATOM     14  C   LIG    1       -2.061   1.263  -0.050  0.00  0.00    +0.004 A 
ENDROOT
BRANCH   2  15
ATOM     15  C   LIG    1        1.566   0.023  -0.068  0.00  0.00    +0.417 C 
ATOM     16  F   LIG    1        2.063   1.103   0.538  0.00  0.00    -0.166 F 
ATOM     17  F   LIG    1        1.988   0.016  -1.332  0.00  0.00    -0.166 F 
ATOM     18  F   LIG    1        2.056  -1.055   0.548  0.00  0.00    -0.166 F 
ENDBRANCH   2  15
TORSDOF 1
