REMARK  Name = DB12869
REMARK                            x       y       z     vdW  Elec       q    Type
REMARK                         _______ _______ _______ _____ _____    ______ ____
ROOT
ATOM      1  C   LIG    1       -2.049  -0.919  -1.015  0.00  0.00    -0.015 C 
ATOM      2  C   LIG    1       -2.691   0.481  -1.122  0.00  0.00    -0.010 C 
ATOM      3  C   LIG    1       -2.196   1.321   0.073  0.00  0.00    -0.015 C 
ATOM      4  C   LIG    1       -0.664   1.473   0.060  0.00  0.00    -0.078 C 
ATOM      5  N   LIG    1       -0.019   0.064   0.100  0.00  0.00    +0.382 N 
ATOM      6  H   LIG    1       -0.305  -0.381   0.961  0.00  0.00    -0.082 HD
ATOM      7  C   LIG    1       -0.512  -0.834  -1.063  0.00  0.00    -0.078 C 
ENDROOT
BRANCH   2   8
ATOM      8  C   LIG    1       -4.238   0.430  -1.163  0.00  0.00    +0.038 C 
BRANCH   8   9
ATOM      9  C   LIG    1       -4.805  -0.285  -2.384  0.00  0.00    -0.047 A 
ATOM     10  C   LIG    1       -5.328  -1.576  -2.261  0.00  0.00    +0.006 A 
ATOM     11  C   LIG    1       -5.844  -2.226  -3.378  0.00  0.00    +0.038 A 
ATOM     12  C   LIG    1       -5.839  -1.585  -4.615  0.00  0.00    +0.123 A 
ATOM     13  F   LIG    1       -6.340  -2.217  -5.700  0.00  0.00    -0.205 F 
ATOM     14  C   LIG    1       -5.321  -0.297  -4.744  0.00  0.00    +0.038 A 
ATOM     15  C   LIG    1       -4.803   0.354  -3.627  0.00  0.00    +0.006 A 
ENDBRANCH   8   9
ENDBRANCH   2   8
BRANCH   5  16
ATOM     16  C   LIG    1        1.532   0.128   0.079  0.00  0.00    -0.042 C 
BRANCH  16  17
ATOM     17  C   LIG    1        2.135   0.814   1.332  0.00  0.00    +0.128 C 
BRANCH  17  18
ATOM     18  C   LIG    1        3.663   0.766   1.286  0.00  0.00    -0.021 A 
ATOM     19  C   LIG    1        4.370   1.848   0.752  0.00  0.00    +0.007 A 
ATOM     20  C   LIG    1        5.761   1.814   0.689  0.00  0.00    +0.020 A 
ATOM     21  C   LIG    1        6.447   0.695   1.157  0.00  0.00    +0.041 A 
ATOM     22 CL   LIG    1        8.170   0.652   1.077  0.00  0.00    -0.084 Cl
ATOM     23  C   LIG    1        5.751  -0.391   1.684  0.00  0.00    +0.020 A 
ATOM     24  C   LIG    1        4.361  -0.357   1.746  0.00  0.00    +0.007 A 
ENDBRANCH  17  18
BRANCH  17  25
ATOM     25  O   LIG    1        1.608   0.237   2.515  0.00  0.00    -0.389 OA
ATOM     26  H   LIG    1        1.917   0.748   3.268  0.00  0.00    +0.210 HD
ENDBRANCH  17  25
ENDBRANCH  16  17
ENDBRANCH   5  16
TORSDOF 6
