REMARK  Name = DB12002
REMARK                            x       y       z     vdW  Elec       q    Type
REMARK                         _______ _______ _______ _____ _____    ______ ____
ROOT
ATOM      1  O   LIG    1        1.337  -0.200   0.023  0.00  0.00    -0.489 OA
ENDROOT
BRANCH   1   7
ATOM      2  C   LIG    1       -2.127  -1.207   0.933  0.00  0.00    +0.144 A 
ATOM      3  C   LIG    1       -2.815  -0.028   0.642  0.00  0.00    +0.084 A 
ATOM      4 CL   LIG    1       -4.520   0.099   0.894  0.00  0.00    -0.080 Cl
ATOM      5  C   LIG    1       -2.122   1.069   0.136  0.00  0.00    +0.040 A 
ATOM      6  C   LIG    1       -0.735   1.020  -0.080  0.00  0.00    +0.080 A 
ATOM      7  C   LIG    1       -0.035  -0.169   0.224  0.00  0.00    +0.136 A 
ATOM      8  C   LIG    1       -0.748  -1.266   0.736  0.00  0.00    +0.093 A 
BRANCH   6   9
ATOM      9  C   LIG    1       -0.022   2.231  -0.649  0.00  0.00    +0.247 C 
ATOM     10  N   LIG    1       -0.498   3.427  -0.254  0.00  0.00    -0.314 N 
ATOM     11  H   LIG    1       -1.292   3.446   0.370  0.00  0.00    +0.149 HD
ATOM     12  C   LIG    1        0.035   4.723  -0.661  0.00  0.00    +0.128 C 
ATOM     13  O   LIG    1        0.938   2.103  -1.411  0.00  0.00    -0.270 OA
ENDBRANCH   6   9
BRANCH   2  14
ATOM     14  O   LIG    1       -2.775  -2.312   1.439  0.00  0.00    -0.473 OA
BRANCH  14  16
ATOM     15  C   LIG    1       -2.523  -4.616   0.930  0.00  0.00    +0.067 C 
ATOM     16  C   LIG    1       -3.286  -3.328   0.538  0.00  0.00    +0.200 C 
ATOM     17  C   LIG    1       -3.075  -3.037  -0.986  0.00  0.00    +0.067 C 
BRANCH  16  18
ATOM     18  C   LIG    1       -4.808  -3.545   0.867  0.00  0.00    +0.348 C 
ATOM     19  O   LIG    1       -5.517  -4.171   0.043  0.00  0.00    -0.247 OA
BRANCH  18  20
ATOM     20  O   LIG    1       -5.264  -3.121   1.956  0.00  0.00    -0.478 OA
ATOM     21  H   LIG    1       -4.706  -2.656   2.548  0.00  0.00    +0.295 HD
ENDBRANCH  18  20
ENDBRANCH  16  18
ENDBRANCH  14  16
ENDBRANCH   2  14
ENDBRANCH   1   7
BRANCH   1  22
ATOM     22  C   LIG    1        2.078  -1.393   0.272  0.00  0.00    +0.258 C 
BRANCH  22  23
ATOM     23  C   LIG    1        3.546  -1.166  -0.136  0.00  0.00    +0.135 C 
BRANCH  23  24
ATOM     24  O   LIG    1        4.115  -0.213   0.747  0.00  0.00    -0.390 OA
ATOM     25  H   LIG    1        3.566   0.576   0.735  0.00  0.00    +0.210 HD
ENDBRANCH  23  24
BRANCH  23  26
ATOM     26  C   LIG    1        4.360  -2.484  -0.104  0.00  0.00    -0.044 C 
BRANCH  26  27
ATOM     27  N   LIG    1        5.882  -2.266  -0.332  0.00  0.00    +0.382 N 
ATOM     28  H   LIG    1        6.152  -1.560   0.340  0.00  0.00    -0.082 HD
ATOM     29  C   LIG    1        6.231  -1.710  -1.739  0.00  0.00    -0.075 C 
ATOM     30  C   LIG    1        6.104  -2.820  -2.806  0.00  0.00    +0.030 C 
ATOM     31  C   LIG    1        6.981  -4.051  -2.469  0.00  0.00    +0.111 C 
ATOM     32  O   LIG    1        8.332  -3.575  -2.374  0.00  0.00    -0.485 OA
ATOM     33  C   LIG    1        9.001  -3.986  -3.499  0.00  0.00    +0.125 A 
ATOM     34  C   LIG    1       10.304  -3.617  -3.824  0.00  0.00    +0.047 A 
ATOM     35  C   LIG    1       10.868  -4.133  -4.994  0.00  0.00    +0.023 A 
ATOM     36  C   LIG    1       10.137  -5.012  -5.804  0.00  0.00    +0.041 A 
ATOM     37 CL   LIG    1       10.851  -5.654  -7.238  0.00  0.00    -0.084 Cl
ATOM     38  C   LIG    1        8.835  -5.381  -5.448  0.00  0.00    +0.027 A 
ATOM     39  C   LIG    1        8.264  -4.846  -4.292  0.00  0.00    -0.001 A 
ATOM     40  C   LIG    1        6.968  -5.108  -3.597  0.00  0.00    +0.086 C 
ATOM     41  C   LIG    1        6.548  -4.602  -1.093  0.00  0.00    +0.030 C 
ATOM     42  C   LIG    1        6.691  -3.543   0.024  0.00  0.00    -0.075 C 
ENDBRANCH  26  27
ENDBRANCH  23  26
ENDBRANCH  22  23
ENDBRANCH   1  22
TORSDOF 11
