REMARK  Name = DB12802
REMARK                            x       y       z     vdW  Elec       q    Type
REMARK                         _______ _______ _______ _____ _____    ______ ____
ROOT
ATOM      1  C   LIG    1        4.077   2.579   0.049  0.00  0.00    +0.064 C 
ATOM      2  C   LIG    1        3.733   3.432  -1.221  0.00  0.00    +0.118 C 
ATOM      3  C   LIG    1        4.577   3.091  -2.454  0.00  0.00    +0.312 C 
ATOM      4  O   LIG    1        4.967   4.212  -3.086  0.00  0.00    -0.464 OA
ATOM      5  C   LIG    1        4.410   5.375  -2.497  0.00  0.00    +0.239 C 
ATOM      6  O   LIG    1        4.948   1.982  -2.834  0.00  0.00    -0.250 OA
ATOM      7  C   LIG    1        3.957   4.946  -1.099  0.00  0.00    +0.074 C 
ATOM      8  C   LIG    1        4.912   5.306   0.067  0.00  0.00    +0.152 C 
ATOM      9  C   LIG    1        4.328   4.734   1.365  0.00  0.00    -0.011 A 
ATOM     10  C   LIG    1        4.213   5.496   2.545  0.00  0.00    +0.056 A 
ATOM     11  C   LIG    1        3.675   4.899   3.675  0.00  0.00    +0.167 A 
ATOM     12  O   LIG    1        3.498   5.424   4.915  0.00  0.00    -0.453 OA
ATOM     13  C   LIG    1        2.782   4.457   5.637  0.00  0.00    +0.466 C 
ATOM     14  O   LIG    1        2.830   3.259   4.909  0.00  0.00    -0.453 OA
ATOM     15  C   LIG    1        3.273   3.599   3.671  0.00  0.00    +0.167 A 
ATOM     16  C   LIG    1        3.378   2.809   2.536  0.00  0.00    +0.054 A 
ATOM     17  C   LIG    1        3.895   3.379   1.354  0.00  0.00    -0.030 A 
ENDROOT
BRANCH   1  22
ATOM     18  C   LIG    1        1.328  -0.108  -0.022  0.00  0.00    +0.165 A 
ATOM     19  C   LIG    1        2.099  -1.277  -0.070  0.00  0.00    +0.204 A 
ATOM     20  C   LIG    1        3.499  -1.220  -0.092  0.00  0.00    +0.165 A 
ATOM     21  C   LIG    1        4.127   0.035  -0.047  0.00  0.00    +0.054 A 
ATOM     22  C   LIG    1        3.377   1.212   0.017  0.00  0.00    -0.032 A 
ATOM     23  C   LIG    1        1.982   1.133   0.022  0.00  0.00    +0.054 A 
BRANCH  18  25
ATOM     24  C   LIG    1       -0.875   0.900   0.035  0.00  0.00    +0.277 C 
ATOM     25  O   LIG    1       -0.047  -0.257  -0.020  0.00  0.00    -0.491 OA
ENDBRANCH  18  25
BRANCH  19  26
ATOM     26  O   LIG    1        1.472  -2.499  -0.124  0.00  0.00    -0.488 OA
ATOM     27  C   LIG    1        1.203  -3.068   1.150  0.00  0.00    +0.277 C 
ENDBRANCH  19  26
BRANCH  20  28
ATOM     28  O   LIG    1        4.181  -2.422  -0.156  0.00  0.00    -0.491 OA
ATOM     29  C   LIG    1        5.604  -2.418  -0.174  0.00  0.00    +0.277 C 
ENDBRANCH  20  28
ENDBRANCH   1  22
BRANCH   8  30
ATOM     30  O   LIG    1        5.174   6.698   0.089  0.00  0.00    -0.387 OA
ATOM     31  H   LIG    1        4.337   7.167   0.107  0.00  0.00    +0.210 HD
ENDBRANCH   8  30
TORSDOF 5
