REMARK  Name = DB12762
REMARK                            x       y       z     vdW  Elec       q    Type
REMARK                         _______ _______ _______ _____ _____    ______ ____
ROOT
ATOM      1  C   LIG    1        2.373   0.564  -0.561  0.00  0.00    +0.260 C 
ENDROOT
BRANCH   1   2
ATOM      2  P   LIG    1        0.524   0.513  -0.610  0.00  0.00    +0.239 P 
ATOM      3  O   LIG    1       -0.152   1.734  -0.092  0.00  0.00    -0.285 OA
BRANCH   2   4
ATOM      4  N   LIG    1        0.094  -0.916   0.221  0.00  0.00    -0.240 NA
ATOM      5  H   LIG    1       -0.246  -0.822   1.179  0.00  0.00    +0.131 HD
BRANCH   4   6
ATOM      6  C   LIG    1        0.595  -2.254  -0.112  0.00  0.00    +0.167 C 
ATOM      7  C   LIG    1        1.607  -2.773   0.933  0.00  0.00    +0.036 C 
BRANCH   6   8
ATOM      8  C   LIG    1       -0.541  -3.233  -0.313  0.00  0.00    +0.324 C 
ATOM      9  O   LIG    1       -0.821  -3.694  -1.421  0.00  0.00    -0.249 OA
BRANCH   8  10
ATOM     10  O   LIG    1       -1.196  -3.518   0.840  0.00  0.00    -0.464 OA
BRANCH  10  12
ATOM     11  C   LIG    1       -2.868  -4.509   2.264  0.00  0.00    +0.048 C 
ATOM     12  C   LIG    1       -2.263  -4.456   0.858  0.00  0.00    +0.229 C 
ENDBRANCH  10  12
ENDBRANCH   8  10
ENDBRANCH   6   8
ENDBRANCH   4   6
ENDBRANCH   2   4
BRANCH   2  13
ATOM     13  N   LIG    1        0.134   0.111  -2.219  0.00  0.00    -0.240 NA
ATOM     14  H   LIG    1        0.727  -0.538  -2.737  0.00  0.00    +0.131 HD
BRANCH  13  15
ATOM     15  C   LIG    1       -1.129   0.471  -2.862  0.00  0.00    +0.167 C 
ATOM     16  C   LIG    1       -0.912   0.945  -4.314  0.00  0.00    +0.036 C 
BRANCH  15  17
ATOM     17  C   LIG    1       -2.119  -0.674  -2.785  0.00  0.00    +0.324 C 
ATOM     18  O   LIG    1       -2.279  -1.503  -3.685  0.00  0.00    -0.249 OA
BRANCH  17  19
ATOM     19  O   LIG    1       -2.787  -0.658  -1.610  0.00  0.00    -0.464 OA
BRANCH  19  20
ATOM     20  C   LIG    1       -3.779  -1.633  -1.322  0.00  0.00    +0.229 C 
ATOM     21  C   LIG    1       -4.247  -1.458   0.126  0.00  0.00    +0.048 C 
ENDBRANCH  19  20
ENDBRANCH  17  19
ENDBRANCH  15  17
ENDBRANCH  13  15
ENDBRANCH   2  13
ENDBRANCH   1   2
BRANCH   1  22
ATOM     22  O   LIG    1        2.874  -0.575  -1.248  0.00  0.00    -0.368 OA
BRANCH  22  23
ATOM     23  C   LIG    1        3.452  -0.319  -2.523  0.00  0.00    +0.182 C 
BRANCH  23  24
ATOM     24  C   LIG    1        3.647  -1.642  -3.287  0.00  0.00    +0.153 C 
BRANCH  24  25
ATOM     25  N   LIG    1        4.304  -2.649  -2.458  0.00  0.00    -0.313 N 
ATOM     26  C   LIG    1        3.784  -3.844  -2.004  0.00  0.00    +0.167 A 
ATOM     27  N   LIG    1        2.580  -4.383  -2.229  0.00  0.00    -0.195 NA
ATOM     28  C   LIG    1        2.402  -5.577  -1.609  0.00  0.00    +0.216 A 
ATOM     29  N   LIG    1        3.290  -6.232  -0.818  0.00  0.00    -0.198 NA
ATOM     30  C   LIG    1        4.509  -5.666  -0.611  0.00  0.00    +0.152 A 
ATOM     31  C   LIG    1        4.810  -4.420  -1.210  0.00  0.00    +0.148 A 
ATOM     32  N   LIG    1        5.913  -3.603  -1.188  0.00  0.00    -0.231 NA
ATOM     33  C   LIG    1        5.578  -2.581  -1.936  0.00  0.00    +0.201 A 
BRANCH  28  34
ATOM     34  N   LIG    1        1.173  -6.198  -1.800  0.00  0.00    -0.327 N 
ATOM     35  H   LIG    1        0.467  -5.733  -2.351  0.00  0.00    +0.145 HD
ATOM     36  H   LIG    1        0.991  -7.081  -1.346  0.00  0.00    +0.145 HD
ENDBRANCH  28  34
BRANCH  30  37
ATOM     37  N   LIG    1        5.367  -6.405   0.221  0.00  0.00    -0.324 N 
ATOM     38  H   LIG    1        4.976  -7.208   0.691  0.00  0.00    +0.148 HD
BRANCH  37  39
ATOM     39  C   LIG    1        6.658  -5.909   0.678  0.00  0.00    +0.072 C 
ATOM     40  C   LIG    1        7.770  -6.922   0.821  0.00  0.00    +0.024 C 
ATOM     41  C   LIG    1        7.806  -5.920  -0.308  0.00  0.00    +0.024 C 
ENDBRANCH  37  39
ENDBRANCH  30  37
ENDBRANCH  24  25
ENDBRANCH  23  24
ENDBRANCH  22  23
ENDBRANCH   1  22
TORSDOF 18
