REMARK  Name = DB12764
REMARK                            x       y       z     vdW  Elec       q    Type
REMARK                         _______ _______ _______ _____ _____    ______ ____
ROOT
ATOM      1  C   LIG    1       -2.124  -0.650   1.234  0.00  0.00    -0.003 C 
ATOM      2  C   LIG    1       -2.818   0.743   1.108  0.00  0.00    +0.015 C 
ATOM      3  C   LIG    1       -2.475   1.456  -0.226  0.00  0.00    -0.009 C 
ATOM      4  C   LIG    1       -0.934   1.627  -0.312  0.00  0.00    +0.019 C 
ATOM      5  C   LIG    1       -0.196   0.253  -0.246  0.00  0.00    +0.048 C 
ATOM      6  C   LIG    1       -0.705  -0.638  -1.419  0.00  0.00    +0.019 C 
ATOM      7  C   LIG    1       -2.240  -0.849  -1.351  0.00  0.00    -0.009 C 
ATOM      8  C   LIG    1       -2.927   0.542  -1.396  0.00  0.00    +0.007 C 
ATOM      9  C   LIG    1       -0.583  -0.444   1.102  0.00  0.00    +0.027 C 
ATOM     10  C   LIG    1       -2.583  -1.510   0.009  0.00  0.00    +0.015 C 
ENDROOT
BRANCH   1  12
ATOM     11  C   LIG    1       -2.101  -0.630   3.785  0.00  0.00    +0.005 A 
ATOM     12  C   LIG    1       -2.463  -1.294   2.603  0.00  0.00    -0.041 A 
ATOM     13  C   LIG    1       -3.126  -2.529   2.707  0.00  0.00    +0.005 A 
ATOM     14  C   LIG    1       -3.416  -3.079   3.953  0.00  0.00    +0.020 A 
ATOM     15  C   LIG    1       -3.047  -2.402   5.112  0.00  0.00    +0.041 A 
ATOM     16 CL   LIG    1       -3.407  -3.084   6.656  0.00  0.00    -0.084 Cl
ATOM     17  C   LIG    1       -2.389  -1.178   5.032  0.00  0.00    +0.020 A 
ENDBRANCH   1  12
BRANCH   5  18
ATOM     18  C   LIG    1        1.337   0.485  -0.399  0.00  0.00    +0.220 C 
ATOM     19  N   LIG    1        2.156   0.092   0.598  0.00  0.00    -0.311 N 
ATOM     20  H   LIG    1        1.746  -0.342   1.412  0.00  0.00    +0.149 HD
ATOM     21  O   LIG    1        1.767   1.025  -1.421  0.00  0.00    -0.275 OA
BRANCH  19  22
ATOM     22  C   LIG    1        3.608   0.283   0.630  0.00  0.00    +0.139 C 
BRANCH  22  23
ATOM     23  C   LIG    1        4.086   1.734   0.712  0.00  0.00    -0.027 A 
ATOM     24  C   LIG    1        5.249   2.122   0.035  0.00  0.00    +0.025 A 
ATOM     25  C   LIG    1        5.652   3.457   0.099  0.00  0.00    +0.111 A 
ATOM     26  N   LIG    1        4.964   4.404   0.786  0.00  0.00    -0.263 NA
ATOM     27  C   LIG    1        3.835   4.019   1.433  0.00  0.00    +0.111 A 
ATOM     28  C   LIG    1        3.364   2.704   1.421  0.00  0.00    +0.025 A 
ENDBRANCH  22  23
ENDBRANCH  19  22
ENDBRANCH   5  18
TORSDOF 4
