REMARK  Name = DB12848
REMARK                            x       y       z     vdW  Elec       q    Type
REMARK                         _______ _______ _______ _____ _____    ______ ____
ROOT
ATOM      1  N   LIG    1       -2.908   2.098   0.030  0.00  0.00    -0.221 N 
ATOM      2  N   LIG    1       -4.168   1.618   0.121  0.00  0.00    -0.061 NA
ATOM      3  N   LIG    1       -4.123   0.236   0.137  0.00  0.00    -0.108 NA
ATOM      4  C   LIG    1       -2.809  -0.121   0.077  0.00  0.00    +0.221 A 
ATOM      5  N   LIG    1       -2.264  -1.342   0.082  0.00  0.00    -0.229 NA
ATOM      6  C   LIG    1       -0.901  -1.370   0.032  0.00  0.00    +0.141 A 
ATOM      7  C   LIG    1       -0.118  -0.204  -0.023  0.00  0.00    +0.094 A 
ATOM      8  N   LIG    1       -0.673   1.044  -0.040  0.00  0.00    -0.223 NA
ATOM      9  C   LIG    1       -2.010   1.044   0.014  0.00  0.00    +0.199 A 
ENDROOT
BRANCH   7  10
ATOM     10  C   LIG    1        1.373  -0.251  -0.054  0.00  0.00    +0.039 A 
ATOM     11  C   LIG    1        2.199  -1.367  -0.045  0.00  0.00    +0.118 A 
ATOM     12  N   LIG    1        3.487  -0.902  -0.068  0.00  0.00    -0.269 N 
ATOM     13  N   LIG    1        3.546   0.435  -0.112  0.00  0.00    -0.179 NA
ATOM     14  C   LIG    1        2.289   0.818  -0.095  0.00  0.00    +0.144 A 
BRANCH  12  15
ATOM     15  C   LIG    1        4.716  -1.690  -0.095  0.00  0.00    +0.171 C 
BRANCH  15  16
ATOM     16  C   LIG    1        5.480  -1.575  -1.430  0.00  0.00    +0.179 C 
BRANCH  16  17
ATOM     17  O   LIG    1        4.705  -2.070  -2.504  0.00  0.00    -0.393 OA
ATOM     18  H   LIG    1        5.197  -1.946  -3.319  0.00  0.00    +0.209 HD
ENDBRANCH  16  17
ENDBRANCH  15  16
ENDBRANCH  12  15
ENDBRANCH   7  10
BRANCH   1  19
ATOM     19  C   LIG    1       -2.659   3.534   0.025  0.00  0.00    +0.182 C 
BRANCH  19  26
ATOM     20  C   LIG    1        2.194   5.160   3.595  0.00  0.00    +0.020 A 
ATOM     21  C   LIG    1        1.405   5.431   4.710  0.00  0.00    +0.111 A 
ATOM     22  N   LIG    1        0.055   5.299   4.723  0.00  0.00    -0.255 NA
ATOM     23  C   LIG    1       -0.564   4.878   3.584  0.00  0.00    +0.071 A 
ATOM     24  C   LIG    1       -1.972   4.731   3.583  0.00  0.00    +0.028 A 
ATOM     25  C   LIG    1       -2.630   4.301   2.433  0.00  0.00    +0.007 A 
ATOM     26  C   LIG    1       -1.920   4.013   1.267  0.00  0.00    -0.025 A 
ATOM     27  C   LIG    1       -0.531   4.152   1.240  0.00  0.00    +0.015 A 
ATOM     28  C   LIG    1        0.168   4.581   2.394  0.00  0.00    +0.001 A 
ATOM     29  C   LIG    1        1.577   4.731   2.423  0.00  0.00    +0.011 A 
ENDBRANCH  19  26
ENDBRANCH   1  19
TORSDOF 6
