REMARK  Name = DB12769
REMARK                            x       y       z     vdW  Elec       q    Type
REMARK                         _______ _______ _______ _____ _____    ______ ____
ROOT
ATOM      1  C   UNK A  0       -2.177   0.686  -0.228  0.00  0.00    +0.037 A 
ATOM      2  C   UNK A  0       -2.592  -0.655  -0.233  0.00  0.00    +0.013 A 
ATOM      3  C   UNK A  0       -3.947  -0.976  -0.203  0.00  0.00    +0.004 A 
ATOM      4  C   UNK A  0       -4.905   0.038  -0.168  0.00  0.00    -0.047 A 
ATOM      5  C   UNK A  0       -4.504   1.375  -0.167  0.00  0.00    +0.004 A 
ATOM      6  C   UNK A  0       -3.150   1.696  -0.200  0.00  0.00    +0.013 A 
ENDROOT
BRANCH   1   9
ATOM      7  N   GLU A  1        0.154   0.108   0.154  0.00  0.00    -0.298 N 
ATOM      8  H   GLU A  1       -0.234  -0.746   0.525  0.00  0.00    +0.150 HD
ATOM      9  C   UNK A  0       -0.711   1.059  -0.262  0.00  0.00    +0.245 C 
ATOM     10  O   UNK A  0       -0.354   2.182  -0.624  0.00  0.00    -0.270 OA
BRANCH   7  11
ATOM     11  CA  GLU A  1        1.624   0.190   0.234  0.00  0.00    +0.182 C 
BRANCH  11  12
ATOM     12  C   GLU A  1        2.286   0.421  -1.179  0.00  0.00    +0.325 C 
ATOM     13  O   GLU A  1        2.128  -0.492  -2.025  0.00  0.00    -0.249 OA
BRANCH  12  14
ATOM     14  OXT GLU A  1        2.890   1.512  -1.295  0.00  0.00    -0.479 OA
ATOM     15  HXT GLU A  1        2.929   2.106  -0.571  0.00  0.00    +0.295 HD
ENDBRANCH  12  14
ENDBRANCH  11  12
BRANCH  11  16
ATOM     16  CB  GLU A  1        2.166  -1.126   0.865  0.00  0.00    +0.045 C 
BRANCH  16  17
ATOM     17  CG  GLU A  1        1.724  -1.335   2.335  0.00  0.00    +0.123 C 
BRANCH  17  18
ATOM     18  CD  GLU A  1        2.242  -2.612   3.022  0.00  0.00    +0.305 C 
ATOM     19  OE1 GLU A  1        1.882  -2.786   4.208  0.00  0.00    -0.251 OA
BRANCH  18  20
ATOM     20  OE2 GLU A  1        2.977  -3.400   2.383  0.00  0.00    -0.481 OA
ATOM     21  HE2 GLU A  1        3.208  -3.208   1.495  0.00  0.00    +0.295 HD
ENDBRANCH  18  20
ENDBRANCH  17  18
ENDBRANCH  16  17
ENDBRANCH  11  16
ENDBRANCH   7  11
ENDBRANCH   1   9
BRANCH   4  22
ATOM     22  C   UNK A  0       -6.385  -0.316  -0.127  0.00  0.00    +0.035 C 
BRANCH  22  23
ATOM     23  C   UNK A  0       -6.886  -0.598   1.305  0.00  0.00    +0.010 C 
BRANCH  23  24
ATOM     24  C   UNK A  0       -8.369  -1.034   1.397  0.00  0.00    +0.011 C 
ATOM     25  C   UNK A  0       -8.698  -1.516   2.838  0.00  0.00    +0.106 C 
ATOM     26  N   UNK A  0      -10.133  -1.706   3.018  0.00  0.00    -0.328 N 
ATOM     27  H   UNK A  0      -10.390  -2.352   3.750  0.00  0.00    +0.147 HD
ATOM     28  C   UNK A  0      -11.102  -1.075   2.283  0.00  0.00    +0.131 A 
ATOM     29  C   UNK A  0      -10.792  -0.234   1.258  0.00  0.00    +0.057 A 
ATOM     30  C   UNK A  0      -11.885   0.401   0.521  0.00  0.00    +0.258 A 
ATOM     31  O   UNK A  0      -11.749   1.180  -0.419  0.00  0.00    -0.267 OA
ATOM     32  N   UNK A  0      -13.116   0.043   0.983  0.00  0.00    -0.295 N 
ATOM     33  H   UNK A  0      -13.899   0.460   0.504  0.00  0.00    +0.172 HD
ATOM     34  C   UNK A  0      -13.364  -0.816   2.024  0.00  0.00    +0.195 A 
ATOM     35  N   UNK A  0      -12.385  -1.366   2.660  0.00  0.00    -0.201 NA
ATOM     36  C   UNK A  0       -9.341   0.064   0.869  0.00  0.00    +0.049 C 
BRANCH  34  37
ATOM     37  N   UNK A  0      -14.704  -1.078   2.375  0.00  0.00    -0.329 N 
ATOM     38  H   UNK A  0      -15.483  -0.648   1.898  0.00  0.00    +0.145 HD
ATOM     39  H   UNK A  0      -14.949  -1.695   3.135  0.00  0.00    +0.145 HD
ENDBRANCH  34  37
ENDBRANCH  23  24
ENDBRANCH  22  23
ENDBRANCH   4  22
TORSDOF 12
