REMARK  Name = DB12564
REMARK                            x       y       z     vdW  Elec       q    Type
REMARK                         _______ _______ _______ _____ _____    ______ ____
ROOT
ATOM      1  O   LIG    1        7.329  -2.108  -2.434  0.00  0.00    -0.462 OA
ENDROOT
BRANCH   1   2
ATOM      2  C   LIG    1        6.958  -1.221  -1.481  0.00  0.00    +0.307 C 
ATOM      3  O   LIG    1        7.179  -0.009  -1.488  0.00  0.00    -0.251 OA
BRANCH   2   4
ATOM      4  C   LIG    1        6.201  -1.886  -0.329  0.00  0.00    +0.120 C 
BRANCH   4   5
ATOM      5  C   LIG    1        4.672  -1.940  -0.539  0.00  0.00    +0.011 C 
BRANCH   5   6
ATOM      6  C   LIG    1        3.971  -0.568  -0.482  0.00  0.00    +0.001 C 
BRANCH   6   7
ATOM      7  C   LIG    1        2.443  -0.666  -0.634  0.00  0.00    +0.000 C 
BRANCH   7   8
ATOM      8  C   LIG    1        1.742   0.701  -0.535  0.00  0.00    +0.000 C 
BRANCH   8   9
ATOM      9  C   LIG    1        0.217   0.608  -0.722  0.00  0.00    +0.004 C 
BRANCH   9  10
ATOM     10  C   LIG    1       -0.485   1.972  -0.610  0.00  0.00    +0.027 C 
BRANCH  10  12
ATOM     11  C   LIG    1       -2.919   2.196   0.079  0.00  0.00    -0.031 C 
ATOM     12  C   LIG    1       -1.984   1.890  -0.837  0.00  0.00    -0.031 C 
BRANCH  11  13
ATOM     13  C   LIG    1       -4.417   2.111  -0.153  0.00  0.00    +0.027 C 
BRANCH  13  14
ATOM     14  C   LIG    1       -5.128   3.469  -0.026  0.00  0.00    +0.004 C 
BRANCH  14  15
ATOM     15  C   LIG    1       -6.642   3.380  -0.290  0.00  0.00    +0.000 C 
BRANCH  15  16
ATOM     16  C   LIG    1       -7.356   4.737  -0.155  0.00  0.00    +0.000 C 
BRANCH  16  17
ATOM     17  C   LIG    1       -8.863   4.657  -0.463  0.00  0.00    -0.000 C 
BRANCH  17  18
ATOM     18  C   LIG    1       -9.578   6.013  -0.306  0.00  0.00    -0.000 C 
BRANCH  18  20
ATOM     19  C   LIG    1      -11.954   5.126   0.196  0.00  0.00    +0.004 C 
ATOM     20  C   LIG    1      -11.066   5.997  -0.706  0.00  0.00    -0.003 C 
ENDBRANCH  18  20
ENDBRANCH  17  18
ENDBRANCH  16  17
ENDBRANCH  15  16
ENDBRANCH  14  15
ENDBRANCH  13  14
ENDBRANCH  11  13
ENDBRANCH  10  12
ENDBRANCH   9  10
ENDBRANCH   8   9
ENDBRANCH   7   8
ENDBRANCH   6   7
ENDBRANCH   5   6
ENDBRANCH   4   5
ENDBRANCH   2   4
ENDBRANCH   1   2
BRANCH   1  21
ATOM     21  C   LIG    1        8.059  -1.708  -3.595  0.00  0.00    +0.266 C 
BRANCH  21  22
ATOM     22  C   LIG    1        9.533  -1.337  -3.302  0.00  0.00    +0.193 C 
ATOM     23  O   LIG    1       10.077  -2.270  -2.360  0.00  0.00    -0.341 OA
ATOM     24  C   LIG    1       11.275  -2.864  -2.792  0.00  0.00    +0.296 C 
ATOM     25  C   LIG    1       11.801  -1.884  -3.847  0.00  0.00    +0.321 C 
ATOM     26  F   LIG    1       12.380  -0.845  -3.237  0.00  0.00    -0.198 F 
ATOM     27  F   LIG    1       12.643  -2.387  -4.752  0.00  0.00    -0.198 F 
ATOM     28  C   LIG    1       10.486  -1.466  -4.495  0.00  0.00    +0.220 C 
BRANCH  24  29
ATOM     29  N   LIG    1       11.109  -4.279  -3.166  0.00  0.00    -0.267 N 
ATOM     30  C   LIG    1       12.239  -5.046  -3.432  0.00  0.00    +0.352 A 
ATOM     31  O   LIG    1       13.356  -4.564  -3.236  0.00  0.00    -0.244 OA
ATOM     32  N   LIG    1       12.012  -6.359  -3.902  0.00  0.00    -0.178 NA
ATOM     33  C   LIG    1       10.835  -6.877  -3.984  0.00  0.00    +0.123 A 
ATOM     34  C   LIG    1        9.668  -6.123  -3.635  0.00  0.00    +0.061 A 
ATOM     35  C   LIG    1        9.859  -4.855  -3.243  0.00  0.00    +0.097 A 
BRANCH  33  36
ATOM     36  N   LIG    1       10.659  -8.136  -4.407  0.00  0.00    -0.343 N 
ATOM     37  H   LIG    1       11.454  -8.700  -4.668  0.00  0.00    +0.144 HD
ATOM     38  H   LIG    1        9.733  -8.533  -4.470  0.00  0.00    +0.144 HD
ENDBRANCH  33  36
ENDBRANCH  24  29
BRANCH  28  39
ATOM     39  O   LIG    1       10.583  -0.278  -5.257  0.00  0.00    -0.383 OA
ATOM     40  H   LIG    1       10.898   0.427  -4.686  0.00  0.00    +0.210 HD
ENDBRANCH  28  39
ENDBRANCH  21  22
ENDBRANCH   1  21
TORSDOF 21
