REMARK  Name = DB12381
REMARK                            x       y       z     vdW  Elec       q    Type
REMARK                         _______ _______ _______ _____ _____    ______ ____
ROOT
ATOM      1  C   LIG    1        0.097   0.204  -0.258  0.00  0.00    +0.037 A 
ATOM      2  C   LIG    1       -0.641   1.391  -0.398  0.00  0.00    +0.065 A 
ATOM      3  C   LIG    1       -2.030   1.377  -0.261  0.00  0.00    +0.167 A 
ATOM      4  F   LIG    1       -2.725   2.529  -0.409  0.00  0.00    -0.202 F 
ATOM      5  C   LIG    1       -2.695   0.181   0.037  0.00  0.00    +0.164 A 
ATOM      6  C   LIG    1       -1.963  -1.000   0.170  0.00  0.00    +0.051 A 
ATOM      7  C   LIG    1       -0.575  -0.986   0.035  0.00  0.00    +0.027 A 
ENDROOT
BRANCH   1  10
ATOM      8  C   LIG    1        2.333   0.935  -1.061  0.00  0.00    +0.254 C 
ATOM      9  O   LIG    1        1.937   1.843  -1.796  0.00  0.00    -0.270 OA
ATOM     10  N   LIG    1        1.498   0.141  -0.347  0.00  0.00    -0.281 N 
ATOM     11  H   LIG    1        1.919  -0.643   0.130  0.00  0.00    +0.155 HD
BRANCH   8  17
ATOM     12  C   LIG    1        7.960  -0.291  -0.442  0.00  0.00    +0.064 C 
ATOM     13  C   LIG    1        6.470   0.026  -0.594  0.00  0.00    +0.024 A 
ATOM     14  N   LIG    1        6.080   1.365  -0.700  0.00  0.00    -0.281 N 
ATOM     15  C   LIG    1        4.755   1.752  -0.837  0.00  0.00    +0.268 A 
ATOM     16  O   LIG    1        4.422   2.943  -0.900  0.00  0.00    -0.266 OA
ATOM     17  C   LIG    1        3.758   0.656  -0.884  0.00  0.00    +0.102 A 
ATOM     18  C   LIG    1        4.170  -0.640  -0.782  0.00  0.00    +0.020 A 
ATOM     19  C   LIG    1        5.568  -0.974  -0.627  0.00  0.00    +0.022 A 
BRANCH  14  20
ATOM     20  C   LIG    1        7.062   2.380  -0.645  0.00  0.00    +0.050 A 
ATOM     21  C   LIG    1        7.683   2.811  -1.823  0.00  0.00    +0.029 A 
ATOM     22  C   LIG    1        8.650   3.811  -1.766  0.00  0.00    +0.040 A 
ATOM     23  C   LIG    1        8.991   4.375  -0.537  0.00  0.00    +0.124 A 
ATOM     24  F   LIG    1        9.931   5.346  -0.485  0.00  0.00    -0.205 F 
ATOM     25  C   LIG    1        8.374   3.948   0.637  0.00  0.00    +0.040 A 
ATOM     26  C   LIG    1        7.407   2.948   0.587  0.00  0.00    +0.029 A 
ENDBRANCH  14  20
ENDBRANCH   8  17
ENDBRANCH   1  10
BRANCH   5  27
ATOM     27  O   LIG    1       -4.064   0.139   0.170  0.00  0.00    -0.453 OA
BRANCH  27  28
ATOM     28  C   LIG    1       -4.659   0.799   1.225  0.00  0.00    +0.137 A 
ATOM     29  C   LIG    1       -5.769   1.630   0.985  0.00  0.00    +0.029 A 
ATOM     30  C   LIG    1       -6.395   2.321   2.033  0.00  0.00    +0.040 A 
ATOM     31  C   LIG    1       -5.884   2.143   3.322  0.00  0.00    +0.069 A 
ATOM     32  N   LIG    1       -6.251   2.655   4.555  0.00  0.00    -0.267 N 
ATOM     33  N   LIG    1       -5.451   2.211   5.544  0.00  0.00    -0.179 NA
ATOM     34  C   LIG    1       -4.580   1.404   4.994  0.00  0.00    +0.143 A 
ATOM     35  C   LIG    1       -7.316   3.598   4.859  0.00  0.00    +0.173 C 
ATOM     36  C   LIG    1       -4.778   1.305   3.585  0.00  0.00    +0.023 A 
ATOM     37  C   LIG    1       -4.167   0.624   2.526  0.00  0.00    +0.058 A 
BRANCH  29  38
ATOM     38  C   LIG    1       -6.322   1.828  -0.392  0.00  0.00    +0.023 A 
ATOM     39  C   LIG    1       -6.951   2.972  -0.922  0.00  0.00    +0.142 A 
ATOM     40  N   LIG    1       -7.332   2.838  -2.172  0.00  0.00    -0.182 NA
ATOM     41  N   LIG    1       -6.963   1.597  -2.490  0.00  0.00    -0.284 N 
ATOM     42  H   LIG    1       -7.130   1.205  -3.406  0.00  0.00    +0.188 HD
ATOM     43  C   LIG    1       -6.352   0.938  -1.459  0.00  0.00    +0.113 A 
ENDBRANCH  29  38
ENDBRANCH  27  28
ENDBRANCH   5  27
TORSDOF 6
