REMARK  Name = DB12711
REMARK                            x       y       z     vdW  Elec       q    Type
REMARK                         _______ _______ _______ _____ _____    ______ ____
ROOT
ATOM      1  C   LIG    1       -0.313  -0.280  -1.010  0.00  0.00    +0.163 C 
ENDROOT
BRANCH   1   2
ATOM      2  N   LIG    1       -0.766  -1.031  -2.179  0.00  0.00    -0.305 N 
ATOM      3  H   LIG    1       -0.088  -1.671  -2.570  0.00  0.00    +0.149 HD
ATOM      4  C   LIG    1       -1.979  -0.922  -2.747  0.00  0.00    +0.199 C 
ATOM      5  O   LIG    1       -2.853  -0.158  -2.323  0.00  0.00    -0.278 OA
BRANCH   4   6
ATOM      6  C   LIG    1       -2.193  -1.851  -3.980  0.00  0.00    +0.013 C 
BRANCH   6   7
ATOM      7  N   LIG    1       -3.625  -1.742  -4.441  0.00  0.00    +0.386 N 
ATOM      8  H   LIG    1       -3.800  -0.800  -4.761  0.00  0.00    -0.089 HD
ATOM      9  H   LIG    1       -3.779  -2.395  -5.196  0.00  0.00    -0.089 HD
ATOM     10  H   LIG    1       -4.237  -1.966  -3.668  0.00  0.00    -0.089 HD
ENDBRANCH   6   7
BRANCH   6  11
ATOM     11  C   LIG    1       -1.180  -1.624  -5.139  0.00  0.00    -0.006 C 
BRANCH  11  12
ATOM     12  C   LIG    1       -1.149  -0.209  -5.760  0.00  0.00    +0.014 C 
BRANCH  12  13
ATOM     13  C   LIG    1       -0.096  -0.084  -6.873  0.00  0.00    +0.084 C 
BRANCH  13  14
ATOM     14  N   LIG    1       -0.203   1.198  -7.592  0.00  0.00    -0.283 NA
ATOM     15  H   LIG    1       -0.905   1.835  -7.245  0.00  0.00    +0.125 HD
BRANCH  14  16
ATOM     16  C   LIG    1        0.525   1.593  -8.657  0.00  0.00    +0.167 C 
BRANCH  16  17
ATOM     17  N   LIG    1        0.281   2.797  -9.194  0.00  0.00    -0.297 NA
ATOM     18  H   LIG    1       -0.441   3.389  -8.808  0.00  0.00    +0.121 HD
ATOM     19  H   LIG    1        0.805   3.110 -10.000  0.00  0.00    +0.121 HD
ENDBRANCH  16  17
BRANCH  16  20
ATOM     20  N   LIG    1        1.483   0.824  -9.201  0.00  0.00    -0.297 NA
ATOM     21  H   LIG    1        1.682  -0.087  -8.813  0.00  0.00    +0.121 HD
ATOM     22  H   LIG    1        2.002   1.147 -10.006  0.00  0.00    +0.121 HD
ENDBRANCH  16  20
ENDBRANCH  14  16
ENDBRANCH  13  14
ENDBRANCH  12  13
ENDBRANCH  11  12
ENDBRANCH   6  11
ENDBRANCH   4   6
ENDBRANCH   1   2
BRANCH   1  23
ATOM     23  C   LIG    1        1.146   0.170  -1.172  0.00  0.00    +0.234 C 
ATOM     24  N   LIG    1        1.485   1.242  -0.437  0.00  0.00    -0.302 N 
ATOM     25  H   LIG    1        0.778   1.680   0.137  0.00  0.00    +0.150 HD
ATOM     26  O   LIG    1        1.915  -0.456  -1.903  0.00  0.00    -0.274 OA
BRANCH  24  27
ATOM     27  C   LIG    1        2.837   1.765  -0.258  0.00  0.00    +0.159 C 
BRANCH  27  28
ATOM     28  C   LIG    1        3.146   1.782   1.245  0.00  0.00    +0.233 C 
ATOM     29  O   LIG    1        2.265   2.100   2.046  0.00  0.00    -0.274 OA
ATOM     30  N   LIG    1        4.398   1.445   1.594  0.00  0.00    -0.313 N 
ATOM     31  H   LIG    1        5.071   1.226   0.873  0.00  0.00    +0.149 HD
BRANCH  30  32
ATOM     32  C   LIG    1        4.854   1.335   2.978  0.00  0.00    +0.109 C 
BRANCH  32  33
ATOM     33  C   LIG    1        4.807  -0.103   3.540  0.00  0.00    +0.054 C 
BRANCH  33  34
ATOM     34  C   LIG    1        3.410  -0.710   3.600  0.00  0.00    -0.046 A 
ATOM     35  C   LIG    1        3.065  -1.751   2.733  0.00  0.00    +0.004 A 
ATOM     36  C   LIG    1        1.787  -2.300   2.778  0.00  0.00    +0.000 A 
ATOM     37  C   LIG    1        0.853  -1.801   3.684  0.00  0.00    +0.000 A 
ATOM     38  C   LIG    1        1.189  -0.762   4.550  0.00  0.00    +0.000 A 
ATOM     39  C   LIG    1        2.471  -0.219   4.512  0.00  0.00    +0.004 A 
ENDBRANCH  33  34
ENDBRANCH  32  33
ENDBRANCH  30  32
ENDBRANCH  27  28
BRANCH  27  40
ATOM     40  C   LIG    1        2.935   3.188  -0.847  0.00  0.00    +0.033 C 
BRANCH  40  41
ATOM     41  C   LIG    1        2.721   3.248  -2.370  0.00  0.00    +0.017 C 
BRANCH  41  42
ATOM     42  C   LIG    1        2.868   4.674  -2.926  0.00  0.00    +0.084 C 
BRANCH  42  43
ATOM     43  N   LIG    1        2.859   4.693  -4.399  0.00  0.00    -0.283 NA
ATOM     44  H   LIG    1        2.740   3.795  -4.844  0.00  0.00    +0.125 HD
BRANCH  43  45
ATOM     45  C   LIG    1        3.002   5.772  -5.196  0.00  0.00    +0.167 C 
BRANCH  45  46
ATOM     46  N   LIG    1        3.164   7.013  -4.706  0.00  0.00    -0.297 NA
ATOM     47  H   LIG    1        3.185   7.163  -3.707  0.00  0.00    +0.121 HD
ATOM     48  H   LIG    1        3.271   7.800  -5.332  0.00  0.00    +0.121 HD
ENDBRANCH  45  46
BRANCH  45  49
ATOM     49  N   LIG    1        2.982   5.601  -6.525  0.00  0.00    -0.297 NA
ATOM     50  H   LIG    1        2.870   4.677  -6.918  0.00  0.00    +0.121 HD
ATOM     51  H   LIG    1        3.094   6.395  -7.140  0.00  0.00    +0.121 HD
ENDBRANCH  45  49
ENDBRANCH  43  45
ENDBRANCH  42  43
ENDBRANCH  41  42
ENDBRANCH  40  41
ENDBRANCH  27  40
ENDBRANCH  24  27
ENDBRANCH   1  23
BRANCH   1  52
ATOM     52  C   LIG    1       -0.503  -1.059   0.322  0.00  0.00    +0.069 C 
BRANCH  52  58
ATOM     53  C   LIG    1       -4.774   0.875   2.209  0.00  0.00    -0.018 A 
ATOM     54  C   LIG    1       -3.872  -0.088   1.715  0.00  0.00    +0.051 A 
ATOM     55  N   LIG    1       -4.008  -1.442   1.514  0.00  0.00    -0.357 N 
ATOM     56  H   LIG    1       -4.833  -1.990   1.712  0.00  0.00    +0.166 HD
ATOM     57  C   LIG    1       -2.863  -2.028   1.020  0.00  0.00    +0.026 A 
ATOM     58  C   LIG    1       -1.927  -1.003   0.851  0.00  0.00    -0.016 A 
ATOM     59  C   LIG    1       -2.545   0.210   1.318  0.00  0.00    +0.004 A 
ATOM     60  C   LIG    1       -2.093   1.529   1.435  0.00  0.00    +0.014 A 
ATOM     61  C   LIG    1       -2.941   2.526   1.923  0.00  0.00    -0.041 A 
ATOM     62  C   LIG    1       -4.249   2.179   2.290  0.00  0.00    +0.010 A 
BRANCH  53  63
ATOM     63  C   LIG    1       -6.234   0.569   2.643  0.00  0.00    -0.011 C 
ATOM     64  C   LIG    1       -6.225  -0.463   3.797  0.00  0.00    +0.015 C 
ATOM     65  C   LIG    1       -7.023   1.810   3.145  0.00  0.00    +0.015 C 
ATOM     66  C   LIG    1       -7.019  -0.013   1.442  0.00  0.00    +0.015 C 
ENDBRANCH  53  63
BRANCH  57  67
ATOM     67  C   LIG    1       -2.800  -3.551   0.780  0.00  0.00    +0.003 C 
ATOM     68  C   LIG    1       -1.729  -4.175   1.704  0.00  0.00    +0.017 C 
ATOM     69  C   LIG    1       -4.154  -4.247   1.088  0.00  0.00    +0.017 C 
ATOM     70  C   LIG    1       -2.451  -3.847  -0.696  0.00  0.00    +0.017 C 
ENDBRANCH  57  67
BRANCH  61  71
ATOM     71  C   LIG    1       -2.395   3.975   2.038  0.00  0.00    -0.013 C 
ATOM     72  C   LIG    1       -1.966   4.482   0.638  0.00  0.00    +0.015 C 
ATOM     73  C   LIG    1       -3.430   4.987   2.600  0.00  0.00    +0.015 C 
ATOM     74  C   LIG    1       -1.168   3.999   2.985  0.00  0.00    +0.015 C 
ENDBRANCH  61  71
ENDBRANCH  52  58
ENDBRANCH   1  52
TORSDOF 28
