REMARK  Name = DB12025
REMARK                            x       y       z     vdW  Elec       q    Type
REMARK                         _______ _______ _______ _____ _____    ______ ____
ROOT
ATOM      1  C   LIG    1        1.530  -0.056  -0.010  0.00  0.00    +0.129 C 
ATOM      2  C   LIG    1        2.115   1.287   0.485  0.00  0.00    +0.186 C 
ATOM      3  C   LIG    1        3.658   1.318   0.511  0.00  0.00    +0.156 C 
ATOM      4  O   LIG    1        4.139   2.597   0.807  0.00  0.00    -0.359 OA
ATOM      5  C   LIG    1        4.370   2.175  -0.514  0.00  0.00    +0.157 C 
ATOM      6  C   LIG    1        5.846   1.865  -0.847  0.00  0.00    +0.043 C 
ATOM      7  C   LIG    1        6.333   0.462  -0.419  0.00  0.00    +0.030 C 
ATOM      8  C   LIG    1        7.831   0.234  -0.675  0.00  0.00    -0.019 C 
ATOM      9  C   LIG    1        8.638   0.783  -1.816  0.00  0.00    +0.264 C 
ATOM     10  O   LIG    1        9.927   0.242  -1.600  0.00  0.00    -0.457 OA
ATOM     11  C   LIG    1        9.954  -0.533  -0.499  0.00  0.00    +0.336 C 
ATOM     12  O   LIG    1       10.951  -1.121  -0.083  0.00  0.00    -0.245 OA
ATOM     13  C   LIG    1        8.627  -0.536   0.082  0.00  0.00    +0.039 C 
ATOM     14  C   LIG    1        8.153  -1.314   1.308  0.00  0.00    +0.043 C 
ATOM     15  C   LIG    1        6.605  -1.317   1.332  0.00  0.00    +0.015 C 
ATOM     16  C   LIG    1        5.967   0.094   1.066  0.00  0.00    +0.009 C 
ATOM     17  C   LIG    1        6.558   1.099   2.102  0.00  0.00    +0.015 C 
ATOM     18  C   LIG    1        4.393   0.080   1.105  0.00  0.00    +0.138 C 
ATOM     19  O   LIG    1        3.800  -0.495   2.244  0.00  0.00    -0.358 OA
ATOM     20  C   LIG    1        3.662  -1.248   1.061  0.00  0.00    +0.186 C 
ATOM     21  O   LIG    1        2.281  -0.763  -0.969  0.00  0.00    -0.359 OA
ATOM     22  C   LIG    1        2.304  -1.311   0.322  0.00  0.00    +0.185 C 
ENDROOT
BRANCH   1  24
ATOM     23  C   LIG    1       -0.700  -0.621   1.157  0.00  0.00    +0.010 C 
ATOM     24  C   LIG    1       -0.023  -0.123  -0.137  0.00  0.00    +0.020 C 
ATOM     25  C   LIG    1       -0.501  -0.952  -1.346  0.00  0.00    +0.010 C 
ENDBRANCH   1  24
BRANCH   2  26
ATOM     26  O   LIG    1        1.667   1.544   1.803  0.00  0.00    -0.386 OA
ATOM     27  H   LIG    1        2.034   2.384   2.089  0.00  0.00    +0.210 HD
ENDBRANCH   2  26
TORSDOF 2
