REMARK  Name = DB12354
REMARK                            x       y       z     vdW  Elec       q    Type
REMARK                         _______ _______ _______ _____ _____    ______ ____
ROOT
ATOM      1  N   LIG    1        1.476  -0.047  -0.016  0.00  0.00    -0.293 N 
ATOM      2  C   LIG    1        2.202  -0.080  -1.155  0.00  0.00    +0.248 C 
ATOM      3  O   LIG    1        1.756  -0.115  -2.303  0.00  0.00    -0.270 OA
ATOM      4  C   LIG    1        3.598  -0.068  -0.735  0.00  0.00    +0.049 C 
ATOM      5  C   LIG    1        3.667   0.035   0.612  0.00  0.00    -0.010 C 
ATOM      6  C   LIG    1        2.284   0.032   1.173  0.00  0.00    +0.144 C 
ENDROOT
BRANCH   4   7
ATOM      7  C   LIG    1        4.725  -0.050  -1.710  0.00  0.00    -0.013 A 
ATOM      8  C   LIG    1        4.724  -0.898  -2.825  0.00  0.00    +0.009 A 
ATOM      9  C   LIG    1        5.787  -0.893  -3.724  0.00  0.00    +0.004 A 
ATOM     10  C   LIG    1        6.868  -0.035  -3.517  0.00  0.00    -0.050 A 
ATOM     11  C   LIG    1        8.037  -0.028  -4.485  0.00  0.00    +0.044 C 
ATOM     12  C   LIG    1        6.881   0.816  -2.413  0.00  0.00    +0.004 A 
ATOM     13  C   LIG    1        5.816   0.808  -1.518  0.00  0.00    +0.009 A 
ENDBRANCH   4   7
BRANCH   5  14
ATOM     14  C   LIG    1        4.867   0.014   1.479  0.00  0.00    -0.020 A 
ATOM     15  C   LIG    1        4.949   0.889   2.567  0.00  0.00    +0.010 A 
ATOM     16  C   LIG    1        6.082   0.906   3.376  0.00  0.00    +0.027 A 
ATOM     17  C   LIG    1        7.144   0.045   3.099  0.00  0.00    +0.088 A 
ATOM     18  C   LIG    1        7.069  -0.841   2.024  0.00  0.00    +0.027 A 
ATOM     19  C   LIG    1        5.934  -0.854   1.218  0.00  0.00    +0.010 A 
BRANCH  17  20
ATOM     20  S   LIG    1        8.608   0.073   4.132  0.00  0.00    -0.006 S 
ATOM     21  C   LIG    1        8.195  -1.157   5.500  0.00  0.00    +0.200 C 
ATOM     22  O   LIG    1        8.705   1.412   4.723  0.00  0.00    -0.170 OA
ATOM     23  O   LIG    1        9.719  -0.467   3.339  0.00  0.00    -0.170 OA
ENDBRANCH  17  20
ENDBRANCH   5  14
BRANCH   1  24
ATOM     24  C   LIG    1        0.014  -0.000   0.012  0.00  0.00    +0.108 C 
BRANCH  24  26
ATOM     25  C   LIG    1       -2.080   1.459   0.072  0.00  0.00    +0.005 C 
ATOM     26  C   LIG    1       -0.547   1.432   0.037  0.00  0.00    +0.016 C 
ENDBRANCH  24  26
ENDBRANCH   1  24
TORSDOF 5
