REMARK  Name = DB12889
REMARK                            x       y       z     vdW  Elec       q    Type
REMARK                         _______ _______ _______ _____ _____    ______ ____
ROOT
ATOM      1  C   LIG    1        1.672   0.479  -0.295  0.00  0.00    +0.076 C 
ATOM      2  C   LIG    1        2.362   0.026  -1.599  0.00  0.00    +0.021 C 
ATOM      3  C   LIG    1        3.880  -0.137  -1.366  0.00  0.00    +0.014 C 
ATOM      4  C   LIG    1        4.117  -1.200  -0.254  0.00  0.00    +0.075 C 
ATOM      5  C   LIG    1        3.415  -0.762   1.064  0.00  0.00    +0.014 C 
ATOM      6  C   LIG    1        1.903  -0.585   0.804  0.00  0.00    +0.021 C 
ENDROOT
BRANCH   4   7
ATOM      7  C   LIG    1        5.636  -1.312   0.005  0.00  0.00    +0.221 C 
ATOM      8  N   LIG    1        6.175  -2.532  -0.213  0.00  0.00    -0.270 N 
ATOM      9  H   LIG    1        5.537  -3.252  -0.518  0.00  0.00    +0.156 HD
ATOM     10  O   LIG    1        6.264  -0.321   0.384  0.00  0.00    -0.275 OA
BRANCH   8  11
ATOM     11  C   LIG    1        7.505  -2.972  -0.085  0.00  0.00    +0.125 A 
ATOM     12  C   LIG    1        8.587  -2.167   0.315  0.00  0.00    +0.044 A 
ATOM     13  C   LIG    1        9.858  -2.739   0.394  0.00  0.00    +0.017 A 
ATOM     14  C   LIG    1       10.041  -4.090   0.077  0.00  0.00    +0.073 A 
ATOM     15  C   LIG    1        8.914  -4.823  -0.310  0.00  0.00    +0.125 A 
ATOM     16  N   LIG    1        7.671  -4.284  -0.393  0.00  0.00    -0.240 NA
BRANCH  14  17
ATOM     17  C   LIG    1       11.427  -4.722   0.164  0.00  0.00    +0.419 C 
ATOM     18  F   LIG    1       11.402  -6.033  -0.082  0.00  0.00    -0.166 F 
ATOM     19  F   LIG    1       11.932  -4.536   1.384  0.00  0.00    -0.166 F 
ATOM     20  F   LIG    1       12.234  -4.144  -0.725  0.00  0.00    -0.166 F 
ENDBRANCH  14  17
ENDBRANCH   8  11
ENDBRANCH   4   7
BRANCH   1  21
ATOM     21  N   LIG    1        0.215   0.525  -0.536  0.00  0.00    -0.191 NA
ATOM     22  H   LIG    1        0.023   0.507  -1.542  0.00  0.00    +0.148 HD
BRANCH  21  23
ATOM     23  S   LIG    1       -0.690   1.801   0.275  0.00  0.00    +0.035 S 
ATOM     24  O   LIG    1       -0.223   1.871   1.665  0.00  0.00    -0.158 OA
ATOM     25  O   LIG    1       -0.611   2.991  -0.579  0.00  0.00    -0.158 OA
BRANCH  23  27
ATOM     26  C   LIG    1       -3.363   2.235   0.962  0.00  0.00    +0.036 C 
ATOM     27  C   LIG    1       -2.492   1.167   0.271  0.00  0.00    +0.095 C 
ATOM     28  C   LIG    1       -2.940   0.964  -1.191  0.00  0.00    +0.036 C 
ATOM     29  C   LIG    1       -2.544  -0.164   1.050  0.00  0.00    +0.036 C 
ENDBRANCH  23  27
ENDBRANCH  21  23
ENDBRANCH   1  21
TORSDOF 6
