REMARK  Name = DB12480
REMARK                            x       y       z     vdW  Elec       q    Type
REMARK                         _______ _______ _______ _____ _____    ______ ____
ROOT
ATOM      1  C   LIG    1        0.635   1.137  -9.821  0.00  0.00    +0.120 C 
ATOM      2  C   LIG    1        1.297   2.129  -8.842  0.00  0.00    +0.032 C 
ATOM      3  C   LIG    1        1.127   1.702  -7.372  0.00  0.00    +0.010 C 
ATOM      4  C   LIG    1       -0.347   1.445  -6.916  0.00  0.00    -0.025 C 
ATOM      5  C   LIG    1       -1.101   2.811  -6.851  0.00  0.00    +0.012 C 
ATOM      6  C   LIG    1       -0.967   0.430  -7.963  0.00  0.00    +0.003 C 
ATOM      7  C   LIG    1       -2.373  -0.046  -7.498  0.00  0.00    +0.005 C 
ATOM      8  C   LIG    1       -2.306  -0.774  -6.144  0.00  0.00    +0.008 C 
ATOM      9  C   LIG    1       -1.697   0.074  -4.979  0.00  0.00    -0.023 C 
ATOM     10  C   LIG    1       -2.729   1.210  -4.655  0.00  0.00    +0.012 C 
ATOM     11  C   LIG    1       -1.418  -0.857  -3.680  0.00  0.00    -0.023 C 
ATOM     12  C   LIG    1       -0.538  -2.112  -4.034  0.00  0.00    +0.012 C 
ATOM     13  C   LIG    1       -2.748  -1.450  -3.063  0.00  0.00    +0.008 C 
ATOM     14  C   LIG    1       -2.598  -2.097  -1.656  0.00  0.00    +0.019 C 
ATOM     15  C   LIG    1       -1.980  -1.102  -0.629  0.00  0.00    +0.071 C 
ATOM     16  C   LIG    1       -1.568  -1.674   0.743  0.00  0.00    +0.019 C 
ATOM     17  C   LIG    1       -0.375  -0.823   1.239  0.00  0.00    +0.009 C 
ATOM     18  C   LIG    1        0.201  -0.085   0.001  0.00  0.00    +0.019 C 
ATOM     19  C   LIG    1       -0.584  -0.700  -1.193  0.00  0.00    +0.017 C 
ATOM     20  C   LIG    1       -0.685   0.025  -2.581  0.00  0.00    +0.000 C 
ATOM     21  C   LIG    1        0.643   0.596  -3.114  0.00  0.00    +0.005 C 
ATOM     22  C   LIG    1        0.431   1.453  -4.370  0.00  0.00    +0.005 C 
ATOM     23  C   LIG    1       -0.324   0.695  -5.505  0.00  0.00    +0.002 C 
ATOM     24  C   LIG    1       -0.871   0.839  -9.493  0.00  0.00    -0.006 C 
ATOM     25  C   LIG    1       -1.741   2.077  -9.847  0.00  0.00    +0.014 C 
ATOM     26  C   LIG    1       -1.287  -0.380 -10.366  0.00  0.00    +0.014 C 
ENDROOT
BRANCH  18  27
ATOM     27  C   LIG    1        1.737  -0.131  -0.021  0.00  0.00    -0.076 C 
ATOM     28  C   LIG    1        2.476  -0.958  -0.786  0.00  0.00    +0.007 C 
ATOM     29  C   LIG    1        2.406   0.857   0.922  0.00  0.00    +0.039 C 
ENDBRANCH  18  27
BRANCH   1  30
ATOM     30  O   LIG    1        0.852   1.583 -11.150  0.00  0.00    -0.391 OA
ATOM     31  H   LIG    1        0.580   0.888 -11.752  0.00  0.00    +0.210 HD
ENDBRANCH   1  30
BRANCH  15  32
ATOM     32  C   LIG    1       -2.933   0.117  -0.359  0.00  0.00    +0.311 C 
ATOM     33  O   LIG    1       -2.560   1.283  -0.236  0.00  0.00    -0.250 OA
BRANCH  32  34
ATOM     34  O   LIG    1       -4.234  -0.272  -0.208  0.00  0.00    -0.480 OA
ATOM     35  H   LIG    1       -4.814   0.469  -0.017  0.00  0.00    +0.295 HD
ENDBRANCH  32  34
ENDBRANCH  15  32
TORSDOF 4
