REMARK  Name = DB12580
REMARK                            x       y       z     vdW  Elec       q    Type
REMARK                         _______ _______ _______ _____ _____    ______ ____
ROOT
ATOM      1  C   LIG    1       -2.100  -0.512   0.785  0.00  0.00    +0.139 A 
ATOM      2  N   LIG    1       -2.200   0.650   1.407  0.00  0.00    -0.127 NA
ATOM      3  N   LIG    1       -0.926   1.127   1.633  0.00  0.00    -0.064 NA
ATOM      4  N   LIG    1       -0.081   0.203   1.164  0.00  0.00    -0.239 N 
ATOM      5  C   LIG    1       -0.761  -0.866   0.616  0.00  0.00    +0.099 A 
ENDROOT
BRANCH   1   7
ATOM      6  C   LIG    1       -3.990  -1.048  -0.891  0.00  0.00    +0.050 A 
ATOM      7  C   LIG    1       -3.309  -1.254   0.334  0.00  0.00    +0.104 A 
ATOM      8  N   LIG    1       -3.689  -2.193   1.242  0.00  0.00    -0.253 NA
ATOM      9  C   LIG    1       -4.764  -2.966   0.963  0.00  0.00    +0.111 A 
ATOM     10  C   LIG    1       -5.493  -2.843  -0.215  0.00  0.00    +0.020 A 
ATOM     11  C   LIG    1       -5.098  -1.880  -1.143  0.00  0.00    +0.015 A 
BRANCH   6  12
ATOM     12  C   LIG    1       -3.568  -0.019  -1.916  0.00  0.00    +0.197 C 
ATOM     13  O   LIG    1       -2.564   0.679  -1.770  0.00  0.00    -0.287 OA
BRANCH  12  16
ATOM     14  C   LIG    1       -6.363   0.927  -4.273  0.00  0.00    +0.001 A 
ATOM     15  C   LIG    1       -5.594   0.776  -3.120  0.00  0.00    +0.013 A 
ATOM     16  C   LIG    1       -4.349   0.135  -3.176  0.00  0.00    +0.041 A 
ATOM     17  C   LIG    1       -3.881  -0.360  -4.408  0.00  0.00    +0.052 A 
ATOM     18 CL   LIG    1       -2.357  -1.174  -4.561  0.00  0.00    -0.083 Cl
ATOM     19  C   LIG    1       -4.660  -0.203  -5.557  0.00  0.00    +0.021 A 
ATOM     20  C   LIG    1       -5.896   0.439  -5.491  0.00  0.00    +0.001 A 
ENDBRANCH  12  16
ENDBRANCH   6  12
ENDBRANCH   1   7
BRANCH   5  21
ATOM     21  C   LIG    1       -0.137  -2.053  -0.035  0.00  0.00    +0.005 A 
ATOM     22  C   LIG    1       -0.504  -2.412  -1.337  0.00  0.00    +0.030 A 
ATOM     23  C   LIG    1        0.089  -3.532  -1.920  0.00  0.00    +0.111 A 
ATOM     24  N   LIG    1        1.007  -4.298  -1.278  0.00  0.00    -0.263 NA
ATOM     25  C   LIG    1        1.349  -3.946  -0.013  0.00  0.00    +0.111 A 
ATOM     26  C   LIG    1        0.803  -2.839   0.641  0.00  0.00    +0.030 A 
ENDBRANCH   5  21
BRANCH   4  27
ATOM     27  C   LIG    1        1.353   0.497   1.150  0.00  0.00    +0.181 C 
BRANCH  27  28
ATOM     28  C   LIG    1        1.831   1.324  -0.044  0.00  0.00    -0.025 A 
ATOM     29  C   LIG    1        1.217   1.228  -1.300  0.00  0.00    +0.017 A 
ATOM     30  C   LIG    1        1.682   1.974  -2.388  0.00  0.00    +0.056 A 
ATOM     31  C   LIG    1        2.781   2.823  -2.209  0.00  0.00    +0.024 A 
ATOM     32  C   LIG    1        3.412   2.929  -0.965  0.00  0.00    +0.056 A 
ATOM     33  C   LIG    1        2.931   2.173   0.110  0.00  0.00    +0.017 A 
BRANCH  30  34
ATOM     34  C   LIG    1        0.997   1.856  -3.748  0.00  0.00    +0.417 C 
ATOM     35  F   LIG    1        1.180   2.950  -4.490  0.00  0.00    -0.166 F 
ATOM     36  F   LIG    1       -0.317   1.667  -3.614  0.00  0.00    -0.166 F 
ATOM     37  F   LIG    1        1.510   0.813  -4.401  0.00  0.00    -0.166 F 
ENDBRANCH  30  34
BRANCH  32  38
ATOM     38  C   LIG    1        4.614   3.855  -0.776  0.00  0.00    +0.417 C 
ATOM     39  F   LIG    1        5.732   3.150  -0.940  0.00  0.00    -0.166 F 
ATOM     40  F   LIG    1        4.624   4.388   0.448  0.00  0.00    -0.166 F 
ATOM     41  F   LIG    1        4.611   4.854  -1.660  0.00  0.00    -0.166 F 
ENDBRANCH  32  38
ENDBRANCH  27  28
ENDBRANCH   4  27
TORSDOF 8
