REMARK  Name = DB12780
REMARK                            x       y       z     vdW  Elec       q    Type
REMARK                         _______ _______ _______ _____ _____    ______ ____
ROOT
ATOM      1  C   LIG    1        1.436   0.177   0.005  0.00  0.00    +0.132 A 
ATOM      2  C   LIG    1        2.106   0.070   1.223  0.00  0.00    +0.051 A 
ATOM      3  C   LIG    1        3.501  -0.016   1.277  0.00  0.00    -0.022 A 
ATOM      4  C   LIG    1        4.235  -0.021   2.605  0.00  0.00    +0.038 C 
ATOM      5  C   LIG    1        5.449   0.904   2.459  0.00  0.00    +0.024 C 
ATOM      6  C   LIG    1        6.407   0.409   1.355  0.00  0.00    +0.114 C 
ATOM      7  N   LIG    1        5.686  -0.061   0.136  0.00  0.00    -0.269 N 
ATOM      8  C   LIG    1        6.434  -0.733  -0.805  0.00  0.00    +0.253 C 
ATOM      9  O   LIG    1        5.925  -1.424  -1.692  0.00  0.00    -0.272 OA
ATOM     10  C   LIG    1        4.250  -0.050   0.080  0.00  0.00    +0.040 A 
ATOM     11  C   LIG    1        3.560   0.116  -1.138  0.00  0.00    +0.027 A 
ATOM     12  C   LIG    1        2.171   0.201  -1.178  0.00  0.00    +0.048 A 
ENDROOT
BRANCH   8  13
ATOM     13  C   LIG    1        7.984  -0.652  -0.783  0.00  0.00    +0.257 C 
ATOM     14 CL   LIG    1        8.770  -1.933  -1.753  0.00  0.00    -0.094 Cl
ATOM     15 CL   LIG    1        8.535   0.941  -1.367  0.00  0.00    -0.094 Cl
ENDBRANCH   8  13
BRANCH   1  16
ATOM     16  O   LIG    1        0.061   0.249  -0.026  0.00  0.00    -0.420 OA
BRANCH  16  17
ATOM     17  C   LIG    1       -0.547   1.472   0.005  0.00  0.00    +0.380 C 
ATOM     18  O   LIG    1        0.024   2.565   0.049  0.00  0.00    -0.241 OA
BRANCH  17  22
ATOM     19  C   LIG    1       -4.221   1.617  -0.051  0.00  0.00    +0.042 A 
ATOM     20  C   LIG    1       -3.909   0.268  -0.072  0.00  0.00    +0.196 A 
ATOM     21  O   LIG    1       -2.561   0.100  -0.055  0.00  0.00    -0.456 OA
ATOM     22  C   LIG    1       -2.001   1.341  -0.022  0.00  0.00    +0.212 A 
ATOM     23  C   LIG    1       -3.005   2.302  -0.018  0.00  0.00    +0.056 A 
ENDBRANCH  17  22
ENDBRANCH  16  17
ENDBRANCH   1  16
TORSDOF 4
