REMARK  Name = DB12472
REMARK                            x       y       z     vdW  Elec       q    Type
REMARK                         _______ _______ _______ _____ _____    ______ ____
ROOT
ATOM      1  N   LIG    1       -2.109   3.133  -1.464  0.00  0.00    -0.333 N 
ATOM      2  C   LIG    1       -0.639   3.254  -1.463  0.00  0.00    +0.086 C 
ATOM      3  C   LIG    1        0.092   1.895  -1.354  0.00  0.00    -0.060 C 
ATOM      4  N   LIG    1       -0.344   1.196  -0.047  0.00  0.00    +0.383 N 
ATOM      5  H   LIG    1       -0.098   1.785   0.736  0.00  0.00    -0.082 HD
ATOM      6  C   LIG    1       -1.881   1.054  -0.067  0.00  0.00    -0.060 C 
ATOM      7  C   LIG    1       -2.513   2.456  -0.218  0.00  0.00    +0.086 C 
ENDROOT
BRANCH   1  11
ATOM      8  C   LIG    1       -4.418   2.688  -4.940  0.00  0.00    +0.000 A 
ATOM      9  C   LIG    1       -5.024   3.043  -3.739  0.00  0.00    +0.002 A 
ATOM     10  C   LIG    1       -4.248   3.189  -2.592  0.00  0.00    +0.023 A 
ATOM     11  C   LIG    1       -2.862   2.981  -2.629  0.00  0.00    +0.030 A 
ATOM     12  C   LIG    1       -2.270   2.630  -3.854  0.00  0.00    +0.023 A 
ATOM     13  C   LIG    1       -3.043   2.482  -5.002  0.00  0.00    +0.002 A 
ENDBRANCH   1  11
BRANCH   4  14
ATOM     14  C   LIG    1        0.315  -0.196   0.131  0.00  0.00    -0.045 C 
BRANCH  14  15
ATOM     15  C   LIG    1        1.856  -0.127   0.294  0.00  0.00    +0.123 C 
BRANCH  15  16
ATOM     16  O   LIG    1        2.210   0.783   1.321  0.00  0.00    -0.391 OA
ATOM     17  H   LIG    1        1.908   1.660   1.075  0.00  0.00    +0.210 HD
ENDBRANCH  15  16
BRANCH  15  18
ATOM     18  C   LIG    1        2.465  -1.500   0.647  0.00  0.00    +0.185 C 
BRANCH  18  19
ATOM     19  O   LIG    1        2.323  -2.414  -0.423  0.00  0.00    -0.393 OA
ATOM     20  H   LIG    1        2.729  -3.247  -0.171  0.00  0.00    +0.210 HD
ENDBRANCH  18  19
ENDBRANCH  15  18
ENDBRANCH  14  15
ENDBRANCH   4  14
TORSDOF 6
