REMARK  Name = DB12116
REMARK                            x       y       z     vdW  Elec       q    Type
REMARK                         _______ _______ _______ _____ _____    ______ ____
ROOT
ATOM      1  C   LIG    1        1.462   0.041   0.004  0.00  0.00    +0.226 C 
ATOM      2  C   LIG    1        2.016  -0.729  -1.208  0.00  0.00    +0.091 C 
ATOM      3  C   LIG    1        1.740  -2.228  -1.101  0.00  0.00    +0.039 A 
ATOM      4  C   LIG    1        1.441  -2.789   0.157  0.00  0.00    +0.132 A 
ATOM      5  C   LIG    1        1.208  -4.157   0.298  0.00  0.00    +0.091 A 
ATOM      6  C   LIG    1        1.277  -4.992  -0.814  0.00  0.00    +0.124 A 
ATOM      7  C   LIG    1        1.569  -4.457  -2.067  0.00  0.00    +0.091 A 
ATOM      8  O   LIG    1        1.256  -2.039   1.303  0.00  0.00    -0.480 OA
ATOM      9  C   LIG    1        1.797  -3.088  -2.210  0.00  0.00    +0.127 A 
ATOM     10  C   LIG    1        1.827  -0.724   1.304  0.00  0.00    +0.245 C 
ENDROOT
BRANCH  10  11
ATOM     11  C   LIG    1        1.446   0.041   2.570  0.00  0.00    +0.003 A 
ATOM     12  C   LIG    1        0.211  -0.177   3.192  0.00  0.00    +0.056 A 
ATOM     13  C   LIG    1       -0.151   0.549   4.326  0.00  0.00    +0.162 A 
ATOM     14  C   LIG    1        0.727   1.503   4.857  0.00  0.00    +0.201 A 
ATOM     15  C   LIG    1        1.967   1.723   4.240  0.00  0.00    +0.162 A 
ATOM     16  C   LIG    1        2.319   0.994   3.103  0.00  0.00    +0.056 A 
BRANCH  15  17
ATOM     17  O   LIG    1        2.849   2.651   4.735  0.00  0.00    -0.503 OA
ATOM     18  H   LIG    1        3.660   2.711   4.226  0.00  0.00    +0.292 HD
ENDBRANCH  15  17
BRANCH  14  19
ATOM     19  O   LIG    1        0.369   2.222   5.973  0.00  0.00    -0.501 OA
ATOM     20  H   LIG    1       -0.504   1.988   6.296  0.00  0.00    +0.292 HD
ENDBRANCH  14  19
BRANCH  13  21
ATOM     21  O   LIG    1       -1.375   0.317   4.902  0.00  0.00    -0.503 OA
ATOM     22  H   LIG    1       -1.887  -0.351   4.439  0.00  0.00    +0.292 HD
ENDBRANCH  13  21
ENDBRANCH  10  11
BRANCH   6  23
ATOM     23  O   LIG    1        1.049  -6.335  -0.677  0.00  0.00    -0.507 OA
ATOM     24  H   LIG    1        1.121  -6.812  -1.507  0.00  0.00    +0.292 HD
ENDBRANCH   6  23
BRANCH   9  25
ATOM     25  O   LIG    1        2.089  -2.599  -3.457  0.00  0.00    -0.506 OA
ATOM     26  H   LIG    1        2.100  -3.282  -4.131  0.00  0.00    +0.292 HD
ENDBRANCH   9  25
BRANCH   1  27
ATOM     27  O   LIG    1        0.048   0.210  -0.142  0.00  0.00    -0.453 OA
BRANCH  27  28
ATOM     28  C   LIG    1       -0.598   1.359   0.200  0.00  0.00    +0.340 C 
ATOM     29  O   LIG    1       -0.020   2.372   0.606  0.00  0.00    -0.245 OA
BRANCH  28  30
ATOM     30  C   LIG    1       -2.087   1.264   0.047  0.00  0.00    +0.066 A 
ATOM     31  C   LIG    1       -2.884   2.378   0.345  0.00  0.00    +0.064 A 
ATOM     32  C   LIG    1       -4.274   2.320   0.226  0.00  0.00    +0.163 A 
ATOM     33  C   LIG    1       -4.892   1.136  -0.192  0.00  0.00    +0.201 A 
ATOM     34  C   LIG    1       -4.109   0.015  -0.491  0.00  0.00    +0.163 A 
ATOM     35  C   LIG    1       -2.719   0.081  -0.372  0.00  0.00    +0.064 A 
BRANCH  34  36
ATOM     36  O   LIG    1       -4.687  -1.161  -0.900  0.00  0.00    -0.503 OA
ATOM     37  H   LIG    1       -4.047  -1.854  -1.077  0.00  0.00    +0.292 HD
ENDBRANCH  34  36
BRANCH  33  38
ATOM     38  O   LIG    1       -6.261   1.073  -0.308  0.00  0.00    -0.501 OA
ATOM     39  H   LIG    1       -6.566   0.213  -0.607  0.00  0.00    +0.292 HD
ENDBRANCH  33  38
BRANCH  32  40
ATOM     40  O   LIG    1       -5.016   3.434   0.527  0.00  0.00    -0.503 OA
ATOM     41  H   LIG    1       -5.959   3.286   0.414  0.00  0.00    +0.292 HD
ENDBRANCH  32  40
ENDBRANCH  28  30
ENDBRANCH  27  28
ENDBRANCH   1  27
TORSDOF 12
