REMARK  Name = DB12201
REMARK                            x       y       z     vdW  Elec       q    Type
REMARK                         _______ _______ _______ _____ _____    ______ ____
ROOT
ATOM      1  C   LIG    1        0.808   2.546  -1.402  0.00  0.00    -0.008 A 
ATOM      2  C   LIG    1        0.181   2.274  -2.623  0.00  0.00    +0.007 A 
ATOM      3  C   LIG    1       -0.919   3.025  -3.034  0.00  0.00    +0.005 A 
ATOM      4  C   LIG    1       -1.404   4.063  -2.233  0.00  0.00    -0.029 A 
ATOM      5  C   LIG    1       -0.766   4.353  -1.022  0.00  0.00    +0.125 A 
ATOM      6  F   LIG    1       -1.217   5.356  -0.234  0.00  0.00    -0.205 F 
ATOM      7  C   LIG    1        0.334   3.599  -0.612  0.00  0.00    +0.045 A 
ENDROOT
BRANCH   1  10
ATOM      8  C   LIG    1        1.738  -0.214   0.149  0.00  0.00    +0.082 C 
ATOM      9  C   LIG    1        2.077   1.233   0.553  0.00  0.00    +0.058 C 
ATOM     10  C   LIG    1        1.991   1.704  -0.923  0.00  0.00    +0.138 C 
ATOM     11  F   LIG    1        3.090   2.371  -1.282  0.00  0.00    -0.237 F 
ATOM     12  C   LIG    1        2.108   0.199  -1.286  0.00  0.00    +0.058 C 
BRANCH   8  15
ATOM     13  N   LIG    1       -0.070  -1.862   0.300  0.00  0.00    -0.315 N 
ATOM     14  H   LIG    1        0.687  -2.531   0.296  0.00  0.00    +0.149 HD
ATOM     15  C   LIG    1        0.228  -0.552   0.264  0.00  0.00    +0.216 C 
ATOM     16  O   LIG    1       -0.635   0.329   0.235  0.00  0.00    -0.276 OA
BRANCH  13  18
ATOM     17  C   LIG    1       -2.146  -2.356  -1.015  0.00  0.00    +0.024 C 
ATOM     18  C   LIG    1       -1.422  -2.417   0.340  0.00  0.00    +0.101 C 
ENDBRANCH  13  18
ENDBRANCH   8  15
ENDBRANCH   1  10
BRANCH   4  19
ATOM     19  C   LIG    1       -2.621   4.860  -2.677  0.00  0.00    -0.040 C 
BRANCH  19  20
ATOM     20  N   LIG    1       -3.934   4.394  -2.015  0.00  0.00    +0.382 N 
ATOM     21  H   LIG    1       -3.801   4.430  -1.014  0.00  0.00    -0.081 HD
ATOM     22  C   LIG    1       -4.375   2.968  -2.402  0.00  0.00    -0.078 C 
ATOM     23  C   LIG    1       -5.901   2.955  -2.237  0.00  0.00    -0.020 C 
ATOM     24  C   LIG    1       -6.335   4.398  -1.974  0.00  0.00    -0.020 C 
ATOM     25  C   LIG    1       -5.147   5.270  -2.365  0.00  0.00    -0.078 C 
ENDBRANCH  19  20
ENDBRANCH   4  19
TORSDOF 5
