REMARK  Name = DB12981
REMARK                            x       y       z     vdW  Elec       q    Type
REMARK                         _______ _______ _______ _____ _____    ______ ____
ROOT
ATOM      1  N   LIG    1        0.203  -1.652   0.667  0.00  0.00    -0.308 N 
ATOM      2  H   LIG    1        1.082  -2.100   0.455  0.00  0.00    +0.149 HD
ATOM      3  C   LIG    1        0.155  -0.308   0.590  0.00  0.00    +0.245 C 
ATOM      4  O   LIG    1       -0.822   0.352   0.948  0.00  0.00    -0.270 OA
ENDROOT
BRANCH   1   5
ATOM      5  C   LIG    1       -0.829  -2.524   1.236  0.00  0.00    +0.077 C 
ATOM      6  C   LIG    1       -0.774  -2.549   2.795  0.00  0.00    +0.044 C 
ATOM      7  C   LIG    1        0.123  -3.672   3.389  0.00  0.00    +0.077 C 
ATOM      8  C   LIG    1        1.591  -3.593   2.937  0.00  0.00    +0.024 C 
ATOM      9  C   LIG    1        1.635  -4.443   1.664  0.00  0.00    +0.024 C 
ATOM     10  C   LIG    1        0.186  -4.926   1.493  0.00  0.00    +0.077 C 
ATOM     11  N   LIG    1       -0.346  -4.955   2.859  0.00  0.00    -0.309 N 
ATOM     12  C   LIG    1       -0.699  -3.962   0.651  0.00  0.00    +0.044 C 
BRANCH  11  13
ATOM     13  C   LIG    1       -1.406  -5.743   3.338  0.00  0.00    +0.122 A 
ATOM     14  N   LIG    1       -1.799  -6.784   2.555  0.00  0.00    -0.240 NA
ATOM     15  C   LIG    1       -2.794  -7.594   2.994  0.00  0.00    +0.124 A 
ATOM     16  C   LIG    1       -3.426  -7.434   4.233  0.00  0.00    +0.036 A 
ATOM     17  C   LIG    1       -3.014  -6.356   5.030  0.00  0.00    +0.016 A 
ATOM     18  C   LIG    1       -1.993  -5.513   4.590  0.00  0.00    +0.044 A 
BRANCH  16  19
ATOM     19  C   LIG    1       -4.535  -8.352   4.636  0.00  0.00    +0.168 C 
ATOM     20  O   LIG    1       -5.182  -9.011   3.818  0.00  0.00    -0.292 OA
BRANCH  19  21
ATOM     21  C   LIG    1       -4.772  -8.564   6.146  0.00  0.00    +0.060 C 
ATOM     22  C   LIG    1       -6.200  -8.776   6.623  0.00  0.00    +0.012 C 
ATOM     23  C   LIG    1       -5.242  -9.932   6.618  0.00  0.00    +0.012 C 
ENDBRANCH  19  21
ENDBRANCH  16  19
ENDBRANCH  11  13
ENDBRANCH   1   5
BRANCH   3  24
ATOM     24  C   LIG    1        1.400   0.355   0.035  0.00  0.00    +0.041 A 
ATOM     25  C   LIG    1        1.890   1.578   0.535  0.00  0.00    -0.038 A 
ATOM     26  C   LIG    1        1.239   2.321   1.701  0.00  0.00    +0.044 C 
ATOM     27  C   LIG    1        3.039   2.139  -0.026  0.00  0.00    +0.019 A 
ATOM     28  C   LIG    1        3.736   1.520  -1.074  0.00  0.00    +0.058 A 
ATOM     29  C   LIG    1        3.257   0.287  -1.576  0.00  0.00    +0.040 A 
ATOM     30  C   LIG    1        2.094  -0.262  -1.016  0.00  0.00    +0.037 A 
BRANCH  28  31
ATOM     31  C   LIG    1        4.970   2.204  -1.634  0.00  0.00    +0.243 C 
ATOM     32  O   LIG    1        5.228   2.202  -2.837  0.00  0.00    -0.270 OA
ATOM     33  N   LIG    1        5.776   2.800  -0.748  0.00  0.00    -0.325 N 
ATOM     34  H   LIG    1        6.614   3.268  -1.062  0.00  0.00    +0.145 HD
ATOM     35  H   LIG    1        5.556   2.779   0.237  0.00  0.00    +0.145 HD
ENDBRANCH  28  31
BRANCH  29  36
ATOM     36  N   LIG    1        3.943  -0.385  -2.612  0.00  0.00    -0.341 N 
ATOM     37  H   LIG    1        4.744   0.076  -3.021  0.00  0.00    +0.146 HD
BRANCH  36  38
ATOM     38  C   LIG    1        3.579  -1.692  -3.161  0.00  0.00    +0.067 C 
ATOM     39  C   LIG    1        3.947  -2.841  -2.199  0.00  0.00    +0.028 C 
BRANCH  38  40
ATOM     40  C   LIG    1        4.218  -1.912  -4.550  0.00  0.00    +0.018 C 
ATOM     41  C   LIG    1        3.734  -0.928  -5.628  0.00  0.00    +0.005 C 
ENDBRANCH  38  40
ENDBRANCH  36  38
ENDBRANCH  29  36
ENDBRANCH   3  24
TORSDOF 9
