REMARK  Name = DB12442
REMARK                            x       y       z     vdW  Elec       q    Type
REMARK                         _______ _______ _______ _____ _____    ______ ____
ROOT
ATOM      1  C   LIG    1       -0.638   0.990  -0.262  0.00  0.00    +0.026 C 
ATOM      2  C   LIG    1        0.136   2.329  -0.190  0.00  0.00    +0.044 C 
ATOM      3  C   LIG    1        0.499   3.012  -1.540  0.00  0.00    -0.007 C 
ATOM      4  C   LIG    1        1.324   2.099  -2.471  0.00  0.00    +0.008 C 
ATOM      5  C   LIG    1       -0.722   3.657  -2.260  0.00  0.00    +0.037 C 
ATOM      6  C   LIG    1       -0.363   4.566  -3.466  0.00  0.00    +0.147 C 
ATOM      7  C   LIG    1       -1.551   5.357  -4.101  0.00  0.00    +0.150 C 
ATOM      8  C   LIG    1       -2.664   4.547  -4.845  0.00  0.00    +0.040 C 
ATOM      9  C   LIG    1       -2.117   3.397  -5.712  0.00  0.00    +0.014 C 
ATOM     10  C   LIG    1       -3.843   4.091  -3.980  0.00  0.00    -0.019 C 
ATOM     11  C   LIG    1       -5.168   4.262  -4.224  0.00  0.00    -0.033 C 
ATOM     12  C   LIG    1       -5.727   4.908  -5.489  0.00  0.00    +0.042 C 
ATOM     13  C   LIG    1       -6.265   3.801  -3.246  0.00  0.00    +0.236 C 
ATOM     14  C   LIG    1       -7.072   2.564  -3.733  0.00  0.00    +0.186 C 
ATOM     15  C   LIG    1       -8.138   2.078  -2.740  0.00  0.00    +0.008 C 
ATOM     16  C   LIG    1       -8.005   1.195  -1.727  0.00  0.00    -0.001 C 
ATOM     17  C   LIG    1       -6.760   0.542  -1.352  0.00  0.00    +0.008 C 
ATOM     18  C   LIG    1       -6.555  -0.290  -0.299  0.00  0.00    +0.012 C 
ATOM     19  C   LIG    1       -7.621  -0.741   0.702  0.00  0.00    +0.049 C 
ATOM     20  C   LIG    1       -5.230  -0.843  -0.042  0.00  0.00    +0.244 C 
ATOM     21  O   LIG    1       -5.075  -1.991   0.380  0.00  0.00    -0.270 OA
ATOM     22  N   LIG    1       -4.219   0.027  -0.286  0.00  0.00    -0.279 N 
ATOM     23  H   LIG    1       -4.510   0.964  -0.529  0.00  0.00    +0.155 HD
ATOM     24  C   LIG    1       -2.855  -0.127  -0.247  0.00  0.00    +0.085 C 
ATOM     25  C   LIG    1       -2.229  -1.331  -0.308  0.00  0.00    +0.080 C 
ATOM     26  C   LIG    1       -0.779  -1.517  -0.324  0.00  0.00    +0.202 C 
ATOM     27  O   LIG    1       -0.294  -2.647  -0.383  0.00  0.00    -0.286 OA
ATOM     28  C   LIG    1       -2.120   1.159  -0.230  0.00  0.00    +0.205 C 
ATOM     29  O   LIG    1       -2.681   2.258  -0.194  0.00  0.00    -0.286 OA
ATOM     30  C   LIG    1       -0.018  -0.232  -0.281  0.00  0.00    +0.081 C 
ENDROOT
BRANCH   6  31
ATOM     31  O   LIG    1        0.648   5.481  -3.030  0.00  0.00    -0.377 OA
ATOM     32  C   LIG    1        1.535   5.960  -4.034  0.00  0.00    +0.194 C 
ENDBRANCH   6  31
BRANCH   7  33
ATOM     33  O   LIG    1       -2.121   6.245  -3.153  0.00  0.00    -0.389 OA
ATOM     34  H   LIG    1       -1.413   6.748  -2.745  0.00  0.00    +0.210 HD
ENDBRANCH   7  33
BRANCH  14  35
ATOM     35  O   LIG    1       -6.157   1.545  -4.145  0.00  0.00    -0.372 OA
ATOM     36  C   LIG    1       -6.711   0.496  -4.931  0.00  0.00    +0.195 C 
ENDBRANCH  14  35
BRANCH  30  37
ATOM     37  N   LIG    1        1.370  -0.283  -0.241  0.00  0.00    -0.342 N 
ATOM     38  H   LIG    1        1.843   0.607  -0.295  0.00  0.00    +0.146 HD
BRANCH  37  39
ATOM     39  C   LIG    1        2.261  -1.317   0.279  0.00  0.00    +0.083 C 
BRANCH  39  40
ATOM     40  C   LIG    1        3.758  -0.942   0.224  0.00  0.00    -0.061 C 
BRANCH  40  41
ATOM     41  N   LIG    1        4.178  -0.334  -1.138  0.00  0.00    +0.377 N 
ATOM     42  H   LIG    1        3.569   0.454  -1.308  0.00  0.00    -0.083 HD
ATOM     43  C   LIG    1        5.616   0.218  -1.087  0.00  0.00    -0.097 C 
ATOM     44  C   LIG    1        3.998  -1.310  -2.318  0.00  0.00    -0.097 C 
ENDBRANCH  40  41
ENDBRANCH  39  40
ENDBRANCH  37  39
ENDBRANCH  30  37
BRANCH  13  45
ATOM     45  O   LIG    1       -5.774   3.557  -1.918  0.00  0.00    -0.440 OA
BRANCH  45  46
ATOM     46  C   LIG    1       -5.563   4.565  -1.039  0.00  0.00    +0.398 C 
ATOM     47  N   LIG    1       -5.175   4.043   0.174  0.00  0.00    -0.295 N 
ATOM     48  H   LIG    1       -4.978   4.671   0.940  0.00  0.00    +0.148 HD
ATOM     49  H   LIG    1       -5.062   3.046   0.272  0.00  0.00    +0.148 HD
ATOM     50  O   LIG    1       -5.706   5.763  -1.279  0.00  0.00    -0.227 OA
ENDBRANCH  45  46
ENDBRANCH  13  45
TORSDOF 9
