REMARK  Name = DB12390
REMARK                            x       y       z     vdW  Elec       q    Type
REMARK                         _______ _______ _______ _____ _____    ______ ____
ROOT
ATOM      1  C   LIG    1       -0.015  -0.061  -0.011  0.00  0.00    +0.166 C 
ENDROOT
BRANCH   1   2
ATOM      2  O   LIG    1       -0.666  -0.698  -1.110  0.00  0.00    -0.373 OA
BRANCH   2   4
ATOM      3  C   LIG    1       -1.609  -2.600  -2.225  0.00  0.00    +0.034 C 
ATOM      4  C   LIG    1       -0.868  -2.100  -0.982  0.00  0.00    +0.157 C 
ENDBRANCH   2   4
ENDBRANCH   1   2
BRANCH   1   5
ATOM      5  C   LIG    1        1.514  -0.266  -0.108  0.00  0.00    +0.109 C 
BRANCH   5   6
ATOM      6  S   LIG    1        2.481   0.397   1.281  0.00  0.00    -0.123 S 
BRANCH   6   7
ATOM      7  C   LIG    1        3.926   1.076   0.534  0.00  0.00    +0.008 A 
ATOM      8  C   LIG    1        4.061   2.458   0.415  0.00  0.00    +0.021 A 
ATOM      9  C   LIG    1        5.199   3.005  -0.186  0.00  0.00    -0.008 A 
ATOM     10  C   LIG    1        5.323   4.516  -0.313  0.00  0.00    +0.047 C 
ATOM     11  C   LIG    1        6.216   2.165  -0.671  0.00  0.00    +0.124 A 
ATOM     12  C   LIG    1        6.064   0.773  -0.541  0.00  0.00    +0.047 A 
ATOM     13  C   LIG    1        4.928   0.232   0.058  0.00  0.00    +0.018 A 
BRANCH  11  14
ATOM     14  O   LIG    1        7.317   2.767  -1.255  0.00  0.00    -0.481 OA
BRANCH  14  15
ATOM     15  C   LIG    1        8.383   1.956  -1.762  0.00  0.00    +0.349 C 
BRANCH  15  16
ATOM     16  C   LIG    1        9.493   2.850  -2.359  0.00  0.00    +0.343 C 
ATOM     17  O   LIG    1       10.485   2.251  -2.832  0.00  0.00    -0.247 OA
BRANCH  16  18
ATOM     18  O   LIG    1        9.367   4.098  -2.349  0.00  0.00    -0.478 OA
ATOM     19  H   LIG    1        8.600   4.489  -1.980  0.00  0.00    +0.295 HD
ENDBRANCH  16  18
ENDBRANCH  15  16
ENDBRANCH  14  15
ENDBRANCH  11  14
ENDBRANCH   6   7
ENDBRANCH   5   6
ENDBRANCH   1   5
BRANCH   1  20
ATOM     20  C   LIG    1       -0.414   1.427  -0.057  0.00  0.00    +0.261 C 
BRANCH  20  21
ATOM     21  O   LIG    1       -1.830   1.535   0.076  0.00  0.00    -0.489 OA
BRANCH  21  22
ATOM     22  C   LIG    1       -2.425   2.780   0.018  0.00  0.00    +0.121 A 
ATOM     23  C   LIG    1       -1.724   3.987  -0.128  0.00  0.00    +0.046 A 
ATOM     24  C   LIG    1       -2.412   5.197  -0.177  0.00  0.00    +0.016 A 
ATOM     25  C   LIG    1       -3.807   5.219  -0.082  0.00  0.00    +0.055 A 
ATOM     26  C   LIG    1       -4.505   4.017   0.065  0.00  0.00    +0.016 A 
ATOM     27  C   LIG    1       -3.816   2.808   0.115  0.00  0.00    +0.046 A 
BRANCH  25  28
ATOM     28  C   LIG    1       -4.583   6.534  -0.130  0.00  0.00    +0.417 C 
ATOM     29  F   LIG    1       -5.374   6.633   0.940  0.00  0.00    -0.166 F 
ATOM     30  F   LIG    1       -5.342   6.561  -1.225  0.00  0.00    -0.166 F 
ATOM     31  F   LIG    1       -3.781   7.601  -0.151  0.00  0.00    -0.166 F 
ENDBRANCH  25  28
ENDBRANCH  21  22
ENDBRANCH  20  21
ENDBRANCH   1  20
TORSDOF 13
