REMARK  Name = DB12405
REMARK                            x       y       z     vdW  Elec       q    Type
REMARK                         _______ _______ _______ _____ _____    ______ ____
ROOT
ATOM      1  C   LIG    1       -1.963   0.739   0.048  0.00  0.00    +0.073 A 
ATOM      2  C   LIG    1       -3.082   1.486  -0.365  0.00  0.00    +0.162 A 
ATOM      3  N   LIG    1       -2.917   2.750  -0.860  0.00  0.00    -0.216 NA
ATOM      4  C   LIG    1       -1.621   3.192  -0.906  0.00  0.00    +0.225 A 
ATOM      5  N   LIG    1       -0.491   2.520  -0.518  0.00  0.00    -0.218 NA
ATOM      6  N   LIG    1       -4.285   0.807  -0.214  0.00  0.00    -0.248 N 
ATOM      7  N   LIG    1       -4.404  -0.476   0.258  0.00  0.00    -0.154 NA
ATOM      8  C   LIG    1       -3.262  -1.120   0.634  0.00  0.00    +0.146 A 
ATOM      9  C   LIG    1       -5.562   1.414  -0.636  0.00  0.00    +0.174 C 
ATOM     10  C   LIG    1       -1.968  -0.549   0.552  0.00  0.00    +0.047 A 
ATOM     11  C   LIG    1       -0.643  -0.833   0.798  0.00  0.00    +0.102 A 
ATOM     12  N   LIG    1        0.160   0.268   0.459  0.00  0.00    -0.302 N 
ATOM     13  C   LIG    1       -0.690   1.259  -0.031  0.00  0.00    +0.149 A 
ENDROOT
BRANCH  12  14
ATOM     14  C1* LIG    1        1.603   0.358   0.553  0.00  0.00    +0.252 C 
ATOM     15  C2* LIG    1        2.209  -0.100   1.877  0.00  0.00    +0.195 C 
ATOM     16  C3* LIG    1        3.645  -0.339   1.408  0.00  0.00    +0.178 C 
ATOM     17  C4* LIG    1        3.469  -0.918  -0.007  0.00  0.00    +0.177 C 
ATOM     18  O4* LIG    1        2.181  -0.457  -0.419  0.00  0.00    -0.346 OA
BRANCH  15  19
ATOM     19  O2* LIG    1        2.017   0.874   2.889  0.00  0.00    -0.385 OA
ATOM     20  H2* LIG    1        1.097   0.853   3.163  0.00  0.00    +0.210 HD
ENDBRANCH  15  19
BRANCH  16  21
ATOM     21  O3* LIG    1        4.450   0.831   1.407  0.00  0.00    -0.386 OA
ATOM     22  H3* LIG    1        4.349   1.269   2.256  0.00  0.00    +0.210 HD
ENDBRANCH  16  21
BRANCH  17  23
ATOM     23  C5* LIG    1        3.473  -2.460  -0.059  0.00  0.00    +0.190 C 
BRANCH  23  24
ATOM     24  O5* LIG    1        3.342  -2.923  -1.388  0.00  0.00    -0.392 OA
ATOM     25  H5* LIG    1        3.349  -3.882  -1.381  0.00  0.00    +0.210 HD
ENDBRANCH  23  24
ENDBRANCH  17  23
ENDBRANCH  12  14
BRANCH   8  26
ATOM     26  N   LIG    1       -3.424  -2.415   1.119  0.00  0.00    -0.341 N 
ATOM     27  H   LIG    1       -4.352  -2.810   1.167  0.00  0.00    +0.144 HD
ATOM     28  H   LIG    1       -2.615  -2.943   1.411  0.00  0.00    +0.144 HD
ENDBRANCH   8  26
TORSDOF 6
