REMARK  Name = DB12895
REMARK                            x       y       z     vdW  Elec       q    Type
REMARK                         _______ _______ _______ _____ _____    ______ ____
ROOT
ATOM      1  S   LIG    1        1.687  -0.055  -0.000  0.00  0.00    -0.093 S 
ENDROOT
BRANCH   1   4
ATOM      2  C   LIG    1       -2.157  -0.653   1.554  0.00  0.00    +0.172 C 
ATOM      3  C   LIG    1       -0.633  -0.870   1.321  0.00  0.00    +0.180 C 
ATOM      4  C   LIG    1       -0.125   0.020   0.154  0.00  0.00    +0.209 C 
ATOM      5  O   LIG    1       -0.516   1.381   0.346  0.00  0.00    -0.355 OA
ATOM      6  C   LIG    1       -1.926   1.596   0.419  0.00  0.00    +0.176 C 
ATOM      7  C   LIG    1       -2.497   0.858   1.663  0.00  0.00    +0.172 C 
BRANCH   2  11
ATOM      8  C   LIG    1       -4.000  -2.434   4.142  0.00  0.00    +0.113 A 
ATOM      9  N   LIG    1       -2.812  -2.264   4.705  0.00  0.00    -0.129 NA
ATOM     10  N   LIG    1       -1.981  -1.600   3.821  0.00  0.00    -0.065 NA
ATOM     11  N   LIG    1       -2.693  -1.401   2.704  0.00  0.00    -0.243 N 
ATOM     12  C   LIG    1       -3.966  -1.886   2.863  0.00  0.00    +0.139 A 
BRANCH   8  18
ATOM     13  C   LIG    1       -7.450  -3.872   4.830  0.00  0.00    +0.003 A 
ATOM     14  C   LIG    1       -7.308  -4.344   6.134  0.00  0.00    +0.038 A 
ATOM     15  C   LIG    1       -6.090  -4.201   6.797  0.00  0.00    +0.124 A 
ATOM     16  F   LIG    1       -5.952  -4.659   8.062  0.00  0.00    -0.205 F 
ATOM     17  C   LIG    1       -5.015  -3.586   6.156  0.00  0.00    +0.048 A 
ATOM     18  C   LIG    1       -5.143  -3.104   4.844  0.00  0.00    +0.006 A 
ATOM     19  C   LIG    1       -6.374  -3.256   4.190  0.00  0.00    +0.010 A 
ENDBRANCH   8  18
ENDBRANCH   2  11
BRANCH   3  20
ATOM     20  O   LIG    1       -0.351  -2.238   1.071  0.00  0.00    -0.386 OA
ATOM     21  H   LIG    1        0.601  -2.345   1.007  0.00  0.00    +0.210 HD
ENDBRANCH   3  20
BRANCH   7  22
ATOM     22  O   LIG    1       -2.042   1.421   2.884  0.00  0.00    -0.387 OA
ATOM     23  H   LIG    1       -2.331   2.335   2.927  0.00  0.00    +0.210 HD
ENDBRANCH   7  22
BRANCH   6  24
ATOM     24  C   LIG    1       -2.236   3.111   0.351  0.00  0.00    +0.190 C 
BRANCH  24  25
ATOM     25  O   LIG    1       -1.650   3.862   1.397  0.00  0.00    -0.392 OA
ATOM     26  H   LIG    1       -1.863   4.789   1.267  0.00  0.00    +0.210 HD
ENDBRANCH  24  25
ENDBRANCH   6  24
ENDBRANCH   1   4
BRANCH   1  27
ATOM     27  C   LIG    1        1.923   0.876  -1.546  0.00  0.00    +0.209 C 
ATOM     28  O   LIG    1        1.378   0.121  -2.629  0.00  0.00    -0.355 OA
ATOM     29  C   LIG    1        1.399   0.788  -3.893  0.00  0.00    +0.176 C 
ATOM     30  C   LIG    1        2.879   1.003  -4.310  0.00  0.00    +0.172 C 
ATOM     31  C   LIG    1        3.609   1.822  -3.210  0.00  0.00    +0.172 C 
ATOM     32  C   LIG    1        3.423   1.175  -1.807  0.00  0.00    +0.180 C 
BRANCH  31  33
ATOM     33  N   LIG    1        5.017   2.055  -3.565  0.00  0.00    -0.243 N 
ATOM     34  N   LIG    1        5.977   1.166  -3.281  0.00  0.00    -0.065 NA
ATOM     35  N   LIG    1        7.151   1.670  -3.811  0.00  0.00    -0.129 NA
ATOM     36  C   LIG    1        6.895   2.818  -4.423  0.00  0.00    +0.113 A 
ATOM     37  C   LIG    1        5.535   3.091  -4.300  0.00  0.00    +0.139 A 
BRANCH  36  38
ATOM     38  C   LIG    1        7.953   3.623  -5.116  0.00  0.00    +0.006 A 
ATOM     39  C   LIG    1        7.614   4.821  -5.760  0.00  0.00    +0.048 A 
ATOM     40  C   LIG    1        8.588   5.582  -6.409  0.00  0.00    +0.124 A 
ATOM     41  F   LIG    1        8.244   6.735  -7.026  0.00  0.00    -0.205 F 
ATOM     42  C   LIG    1        9.914   5.153  -6.422  0.00  0.00    +0.038 A 
ATOM     43  C   LIG    1       10.266   3.964  -5.786  0.00  0.00    +0.003 A 
ATOM     44  C   LIG    1        9.292   3.204  -5.138  0.00  0.00    +0.010 A 
ENDBRANCH  36  38
ENDBRANCH  31  33
BRANCH  30  45
ATOM     45  O   LIG    1        3.524  -0.228  -4.603  0.00  0.00    -0.387 OA
ATOM     46  H   LIG    1        4.410  -0.042  -4.923  0.00  0.00    +0.210 HD
ENDBRANCH  30  45
BRANCH  32  47
ATOM     47  O   LIG    1        3.958   2.008  -0.791  0.00  0.00    -0.386 OA
ATOM     48  H   LIG    1        3.857   1.561   0.053  0.00  0.00    +0.210 HD
ENDBRANCH  32  47
BRANCH  29  49
ATOM     49  C   LIG    1        0.602  -0.046  -4.919  0.00  0.00    +0.190 C 
BRANCH  49  50
ATOM     50  O   LIG    1       -0.767  -0.085  -4.572  0.00  0.00    -0.392 OA
ATOM     51  H   LIG    1       -0.863  -0.609  -3.773  0.00  0.00    +0.210 HD
ENDBRANCH  49  50
ENDBRANCH  29  49
ENDBRANCH   1  27
TORSDOF 14
