REMARK  Name = DB12485
REMARK                            x       y       z     vdW  Elec       q    Type
REMARK                         _______ _______ _______ _____ _____    ______ ____
ROOT
ATOM      1  C   LIG    1        0.049   0.033  -0.056  0.00  0.00    +0.118 C 
ENDROOT
BRANCH   1   2
ATOM      2  O   LIG    1       -0.533   1.324  -0.152  0.00  0.00    -0.392 OA
ATOM      3  H   LIG    1       -0.287   1.833   0.624  0.00  0.00    +0.210 HD
ENDBRANCH   1   2
BRANCH   1   4
ATOM      4  C   LIG    1       -0.527  -0.733   1.161  0.00  0.00    -0.045 C 
BRANCH   4   8
ATOM      5  C   LIG    1       -4.726  -2.066   1.406  0.00  0.00    -0.004 C 
ATOM      6  C   LIG    1       -4.194  -1.551   0.058  0.00  0.00    -0.019 C 
ATOM      7  C   LIG    1       -2.656  -1.574  -0.008  0.00  0.00    -0.079 C 
ATOM      8  N   LIG    1       -2.079  -0.766   1.182  0.00  0.00    +0.381 N 
ATOM      9  H   LIG    1       -2.421   0.182   1.111  0.00  0.00    -0.082 HD
ATOM     10  C   LIG    1       -2.561  -1.335   2.539  0.00  0.00    -0.079 C 
ATOM     11  C   LIG    1       -4.099  -1.306   2.586  0.00  0.00    -0.019 C 
ENDBRANCH   4   8
ENDBRANCH   1   4
BRANCH   1  12
ATOM     12  C   LIG    1        1.589   0.161   0.038  0.00  0.00    +0.154 C 
BRANCH  12  13
ATOM     13  N   LIG    1        2.167   0.738  -1.178  0.00  0.00    -0.309 N 
ATOM     14  C   LIG    1        2.417   0.171  -2.425  0.00  0.00    +0.286 A 
ATOM     15  N   LIG    1        2.928   1.039  -3.278  0.00  0.00    -0.215 NA
ATOM     16  C   LIG    1        3.017   2.175  -2.616  0.00  0.00    +0.132 A 
ATOM     17  C   LIG    1        2.558   2.047  -1.319  0.00  0.00    +0.109 A 
BRANCH  14  18
ATOM     18  N   LIG    1        2.149  -1.208  -2.757  0.00  0.00    +0.043 N 
ATOM     19  O   LIG    1        1.747  -1.976  -1.890  0.00  0.00    -0.127 OA
BRANCH  18  20
ATOM     20  O   LIG    1        2.345  -1.555  -3.918  0.00  0.00    -0.394 OA
ATOM     21  H   LIG    1        2.653  -0.933  -4.547  0.00  0.00    +0.329 HD
ENDBRANCH  18  20
ENDBRANCH  14  18
ENDBRANCH  12  13
ENDBRANCH   1  12
TORSDOF 7
