REMARK  Name = DB12184
REMARK                            x       y       z     vdW  Elec       q    Type
REMARK                         _______ _______ _______ _____ _____    ______ ____
ROOT
ATOM      1  C   LIG    1        2.280  -1.192   0.081  0.00  0.00    +0.017 C 
ENDROOT
BRANCH   1   2
ATOM      2  C   LIG    1        1.586   0.182   0.144  0.00  0.00    +0.021 C 
BRANCH   2   3
ATOM      3  C   LIG    1        0.048   0.065   0.180  0.00  0.00    +0.116 C 
BRANCH   3  10
ATOM      4  C   LIG    1       -2.392   5.293   0.095  0.00  0.00    +0.012 C 
ATOM      5  C   LIG    1       -1.377   4.127   0.110  0.00  0.00    -0.018 C 
ATOM      6  C   LIG    1        0.085   4.651   0.087  0.00  0.00    +0.012 C 
ATOM      7  C   LIG    1       -1.657   3.237  -1.126  0.00  0.00    +0.103 C 
ATOM      8  C   LIG    1       -0.928   1.874  -1.092  0.00  0.00    +0.222 C 
ATOM      9  O   LIG    1       -0.655   1.299  -2.149  0.00  0.00    -0.275 OA
ATOM     10  N   LIG    1       -0.647   1.381   0.160  0.00  0.00    -0.242 N 
ATOM     11  C   LIG    1       -0.912   1.922   1.396  0.00  0.00    +0.222 C 
ATOM     12  O   LIG    1       -0.629   1.386   2.470  0.00  0.00    -0.275 OA
ATOM     13  C   LIG    1       -1.636   3.288   1.387  0.00  0.00    +0.103 C 
ENDBRANCH   3  10
ENDBRANCH   2   3
ENDBRANCH   1   2
BRANCH   1  14
ATOM     14  C   LIG    1        3.825  -1.133   0.081  0.00  0.00    +0.084 C 
BRANCH  14  15
ATOM     15  N   LIG    1        4.389  -0.313  -0.999  0.00  0.00    -0.299 NA
ATOM     16  C   LIG    1        5.837  -0.199  -0.830  0.00  0.00    +0.103 C 
ATOM     17  C   LIG    1        6.441   0.748  -1.891  0.00  0.00    +0.123 C 
ATOM     18  N   LIG    1        6.130   0.375  -3.287  0.00  0.00    -0.297 N 
ATOM     19  C   LIG    1        4.699   0.034  -3.433  0.00  0.00    +0.123 C 
ATOM     20  C   LIG    1        4.145  -0.888  -2.323  0.00  0.00    +0.103 C 
BRANCH  18  21
ATOM     21  C   LIG    1        6.914   0.794  -4.368  0.00  0.00    +0.218 A 
ATOM     22  N   LIG    1        8.151   1.309  -4.101  0.00  0.00    -0.223 NA
ATOM     23  C   LIG    1        8.917   1.671  -5.163  0.00  0.00    +0.116 A 
ATOM     24  C   LIG    1        8.486   1.522  -6.481  0.00  0.00    +0.039 A 
ATOM     25  C   LIG    1        7.216   0.976  -6.668  0.00  0.00    +0.116 A 
ATOM     26  N   LIG    1        6.424   0.605  -5.628  0.00  0.00    -0.223 NA
ENDBRANCH  18  21
ENDBRANCH  14  15
ENDBRANCH   1  14
TORSDOF 6
