REMARK  Name = DB12624
REMARK                            x       y       z     vdW  Elec       q    Type
REMARK                         _______ _______ _______ _____ _____    ______ ____
ROOT
ATOM      1  C   LIG    1        0.497  -0.683  -1.313  0.00  0.00    +0.000 C 
ENDROOT
BRANCH   1   2
ATOM      2  C   LIG    1       -0.352   0.435  -0.676  0.00  0.00    +0.000 C 
BRANCH   2   3
ATOM      3  C   LIG    1        0.096   1.862  -1.049  0.00  0.00    +0.002 C 
BRANCH   3   4
ATOM      4  C   LIG    1       -0.859   2.950  -0.528  0.00  0.00    +0.021 C 
BRANCH   4   5
ATOM      5  C   LIG    1       -0.393   4.375  -0.886  0.00  0.00    +0.121 C 
BRANCH   5  11
ATOM      6  N   LIG    1       -3.066   9.122  -1.520  0.00  0.00    -0.384 N 
ATOM      7  H   LIG    1       -2.727   9.903  -0.965  0.00  0.00    +0.160 HD
ATOM      8  C   LIG    1       -2.587   7.910  -1.259  0.00  0.00    +0.038 A 
ATOM      9  C   LIG    1       -1.636   7.763  -0.235  0.00  0.00    +0.043 A 
ATOM     10  C   LIG    1       -1.092   6.545   0.026  0.00  0.00    +0.087 A 
ATOM     11  N   LIG    1       -1.411   5.407  -0.702  0.00  0.00    -0.353 N 
ATOM     12  C   LIG    1       -2.413   5.548  -1.653  0.00  0.00    +0.087 A 
ATOM     13  C   LIG    1       -2.983   6.747  -1.949  0.00  0.00    +0.043 A 
BRANCH   6  14
ATOM     14  C   LIG    1       -4.069   9.438  -2.573  0.00  0.00    +0.113 C 
BRANCH  14  15
ATOM     15  C   LIG    1       -4.262  10.960  -2.664  0.00  0.00    +0.021 C 
BRANCH  15  16
ATOM     16  C   LIG    1       -5.260  11.359  -3.764  0.00  0.00    +0.002 C 
BRANCH  16  17
ATOM     17  C   LIG    1       -5.434  12.883  -3.894  0.00  0.00    +0.000 C 
BRANCH  17  18
ATOM     18  C   LIG    1       -6.416  13.282  -5.011  0.00  0.00    -0.000 C 
BRANCH  18  19
ATOM     19  C   LIG    1       -6.577  14.809  -5.150  0.00  0.00    -0.000 C 
BRANCH  19  21
ATOM     20  C   LIG    1       -8.958  14.845  -6.156  0.00  0.00    +0.004 C 
ATOM     21  C   LIG    1       -7.484  15.246  -6.317  0.00  0.00    -0.003 C 
ENDBRANCH  19  21
ENDBRANCH  18  19
ENDBRANCH  17  18
ENDBRANCH  16  17
ENDBRANCH  15  16
ENDBRANCH  14  15
ENDBRANCH   6  14
ENDBRANCH   5  11
ENDBRANCH   4   5
ENDBRANCH   3   4
ENDBRANCH   2   3
ENDBRANCH   1   2
BRANCH   1  22
ATOM     22  C   LIG    1        1.958  -0.736  -0.825  0.00  0.00    +0.000 C 
BRANCH  22  23
ATOM     23  C   LIG    1        2.763  -1.874  -1.478  0.00  0.00    +0.000 C 
BRANCH  23  24
ATOM     24  C   LIG    1        4.225  -1.931  -1.002  0.00  0.00    +0.002 C 
BRANCH  24  25
ATOM     25  C   LIG    1        5.042  -3.026  -1.716  0.00  0.00    +0.021 C 
BRANCH  25  26
ATOM     26  C   LIG    1        6.529  -3.083  -1.305  0.00  0.00    +0.121 C 
BRANCH  26  27
ATOM     27  N   LIG    1        6.763  -3.272   0.129  0.00  0.00    -0.353 N 
ATOM     28  C   LIG    1        7.793  -2.571   0.746  0.00  0.00    +0.087 A 
ATOM     29  C   LIG    1        8.521  -3.078   1.776  0.00  0.00    +0.043 A 
ATOM     30  C   LIG    1        8.230  -4.353   2.287  0.00  0.00    +0.038 A 
ATOM     31  N   LIG    1        8.988  -4.840   3.264  0.00  0.00    -0.384 N 
ATOM     32  H   LIG    1        9.756  -4.270   3.606  0.00  0.00    +0.160 HD
ATOM     33  C   LIG    1        7.133  -5.041   1.731  0.00  0.00    +0.043 A 
ATOM     34  C   LIG    1        6.433  -4.493   0.703  0.00  0.00    +0.087 A 
BRANCH  31  35
ATOM     35  C   LIG    1        8.810  -6.172   3.904  0.00  0.00    +0.113 C 
BRANCH  35  36
ATOM     36  C   LIG    1        9.920  -6.399   4.942  0.00  0.00    +0.021 C 
BRANCH  36  37
ATOM     37  C   LIG    1        9.822  -7.779   5.614  0.00  0.00    +0.002 C 
BRANCH  37  38
ATOM     38  C   LIG    1       10.926  -8.015   6.661  0.00  0.00    +0.000 C 
BRANCH  38  39
ATOM     39  C   LIG    1       10.857  -9.411   7.305  0.00  0.00    -0.000 C 
BRANCH  39  40
ATOM     40  C   LIG    1       11.959  -9.640   8.356  0.00  0.00    -0.000 C 
BRANCH  40  41
ATOM     41  C   LIG    1       11.904 -11.042   8.988  0.00  0.00    -0.003 C 
ATOM     42  C   LIG    1       13.007 -11.272  10.031  0.00  0.00    +0.004 C 
ENDBRANCH  40  41
ENDBRANCH  39  40
ENDBRANCH  38  39
ENDBRANCH  37  38
ENDBRANCH  36  37
ENDBRANCH  35  36
ENDBRANCH  31  35
ENDBRANCH  26  27
ENDBRANCH  25  26
ENDBRANCH  24  25
ENDBRANCH  23  24
ENDBRANCH  22  23
ENDBRANCH   1  22
TORSDOF 25
