REMARK  Name = DB12223
REMARK                            x       y       z     vdW  Elec       q    Type
REMARK                         _______ _______ _______ _____ _____    ______ ____
ROOT
ATOM      1  C   LIG    1        1.284   0.185  -0.336  0.00  0.00    +0.217 C 
ATOM      2  C   LIG    1        2.222   0.103  -1.313  0.00  0.00    +0.217 C 
ATOM      3  C   LIG    1        3.370   0.506  -0.399  0.00  0.00    +0.274 C 
ATOM      4  O   LIG    1        4.577   0.719  -0.503  0.00  0.00    -0.280 OA
ATOM      5  C   LIG    1        2.291   0.507   0.758  0.00  0.00    +0.274 C 
ATOM      6  O   LIG    1        2.277   0.694   1.974  0.00  0.00    -0.280 OA
ENDROOT
BRANCH   1   7
ATOM      7  O   LIG    1       -0.051  -0.045  -0.325  0.00  0.00    -0.485 OA
BRANCH   7   8
ATOM      8  C   LIG    1       -0.797   0.680   0.647  0.00  0.00    +0.229 C 
BRANCH   8   9
ATOM      9  C   LIG    1       -2.300   0.499   0.384  0.00  0.00    +0.041 C 
BRANCH   9  11
ATOM     10  C   LIG    1       -4.263   0.895  -1.215  0.00  0.00    +0.004 C 
ATOM     11  C   LIG    1       -2.755   1.050  -0.981  0.00  0.00    -0.000 C 
ENDBRANCH   9  11
ENDBRANCH   8   9
ENDBRANCH   7   8
ENDBRANCH   1   7
BRANCH   2  12
ATOM     12  O   LIG    1        2.143  -0.151  -2.641  0.00  0.00    -0.485 OA
BRANCH  12  13
ATOM     13  C   LIG    1        3.296  -0.745  -3.228  0.00  0.00    +0.229 C 
BRANCH  13  14
ATOM     14  C   LIG    1        2.955  -1.174  -4.662  0.00  0.00    +0.041 C 
BRANCH  14  15
ATOM     15  C   LIG    1        4.135  -1.850  -5.383  0.00  0.00    -0.000 C 
ATOM     16  C   LIG    1        3.797  -2.272  -6.819  0.00  0.00    +0.004 C 
ENDBRANCH  14  15
ENDBRANCH  13  14
ENDBRANCH  12  13
ENDBRANCH   2  12
TORSDOF 8
