REMARK  Name = DB12319
REMARK                            x       y       z     vdW  Elec       q    Type
REMARK                         _______ _______ _______ _____ _____    ______ ____
ROOT
ATOM      1  C   LIG    1        2.204   0.127   2.537  0.00  0.00    +0.197 C 
ATOM      2  O   LIG    1        1.327  -0.587   3.027  0.00  0.00    -0.287 OA
ENDROOT
BRANCH   1  11
ATOM      3  C   LIG    1        1.446  -0.023   0.094  0.00  0.00    +0.117 A 
ATOM      4  O   LIG    1        2.000  -0.012  -1.153  0.00  0.00    -0.459 OA
ATOM      5  C   LIG    1        3.347   0.090  -0.982  0.00  0.00    +0.136 A 
ATOM      6  C   LIG    1        3.684   0.150   0.389  0.00  0.00    +0.031 A 
ATOM      7  C   LIG    1        5.047   0.231   0.734  0.00  0.00    +0.012 A 
ATOM      8  C   LIG    1        6.004   0.267  -0.284  0.00  0.00    +0.001 A 
ATOM      9  C   LIG    1        5.636   0.217  -1.629  0.00  0.00    +0.004 A 
ATOM     10  C   LIG    1        4.298   0.125  -2.009  0.00  0.00    +0.047 A 
ATOM     11  C   LIG    1        2.424   0.095   1.087  0.00  0.00    +0.071 A 
BRANCH   3  13
ATOM     12  C   LIG    1       -0.738   1.137  -0.452  0.00  0.00    +0.012 C 
ATOM     13  C   LIG    1       -0.067  -0.123   0.113  0.00  0.00    +0.072 C 
ENDBRANCH   3  13
ENDBRANCH   1  11
BRANCH   1  14
ATOM     14  C   LIG    1        3.085   0.975   3.402  0.00  0.00    +0.025 A 
ATOM     15  C   LIG    1        3.629   2.177   2.934  0.00  0.00    +0.030 A 
ATOM     16  C   LIG    1        4.425   2.978   3.753  0.00  0.00    +0.061 A 
ATOM     17 BR   LIG    1        5.133   4.582   2.980  0.00  0.00    -0.046 Br
ATOM     18  C   LIG    1        4.672   2.594   5.086  0.00  0.00    +0.145 A 
ATOM     19  C   LIG    1        4.102   1.401   5.574  0.00  0.00    +0.061 A 
ATOM     20 BR   LIG    1        4.354   0.782   7.370  0.00  0.00    -0.046 Br
ATOM     21  C   LIG    1        3.312   0.613   4.735  0.00  0.00    +0.030 A 
BRANCH  18  22
ATOM     22  O   LIG    1        5.400   3.319   5.843  0.00  0.00    -0.505 OA
ATOM     23  H   LIG    1        5.561   3.058   6.728  0.00  0.00    +0.292 HD
ENDBRANCH  18  22
ENDBRANCH   1  14
TORSDOF 4
