REMARK  Name = DB12368
REMARK                            x       y       z     vdW  Elec       q    Type
REMARK                         _______ _______ _______ _____ _____    ______ ____
ROOT
ATOM      1  C   LIG    1        1.556  -0.015  -0.122  0.00  0.00    +0.228 C 
ATOM      2  N   LIG    1        2.110   1.328  -0.240  0.00  0.00    -0.062 NA
ATOM      3  C   LIG    1        2.785   1.611   0.802  0.00  0.00    +0.316 C 
ATOM      4  C   LIG    1        2.802   0.546   1.792  0.00  0.00    +0.108 A 
ATOM      5  C   LIG    1        3.374   0.395   3.060  0.00  0.00    +0.139 A 
ATOM      6  F   LIG    1        4.116   1.384   3.612  0.00  0.00    -0.205 F 
ATOM      7  C   LIG    1        3.172  -0.792   3.768  0.00  0.00    +0.039 A 
ATOM      8  C   LIG    1        2.402  -1.817   3.214  0.00  0.00    +0.003 A 
ATOM      9  C   LIG    1        1.832  -1.659   1.949  0.00  0.00    +0.010 A 
ATOM     10  C   LIG    1        2.045  -0.473   1.238  0.00  0.00    +0.031 A 
ENDROOT
BRANCH   1  13
ATOM     11  C   LIG    1       -2.093  -1.195  -0.416  0.00  0.00    +0.001 A 
ATOM     12  C   LIG    1       -0.702  -1.181  -0.378  0.00  0.00    +0.009 A 
ATOM     13  C   LIG    1        0.001   0.008  -0.136  0.00  0.00    +0.014 A 
ATOM     14  C   LIG    1       -0.743   1.186   0.060  0.00  0.00    +0.017 A 
ATOM     15  C   LIG    1       -2.145   1.194   0.025  0.00  0.00    -0.015 A 
ATOM     16  C   LIG    1       -2.807  -0.017  -0.216  0.00  0.00    +0.008 A 
BRANCH  15  17
ATOM     17  C   LIG    1       -2.909   2.457   0.241  0.00  0.00    +0.018 A 
ATOM     18  C   LIG    1       -4.170   2.477   0.860  0.00  0.00    +0.122 A 
ATOM     19  N   LIG    1       -4.881   3.616   1.068  0.00  0.00    -0.243 NA
ATOM     20  C   LIG    1       -4.301   4.765   0.639  0.00  0.00    +0.221 A 
ATOM     21  N   LIG    1       -3.095   4.873   0.029  0.00  0.00    -0.243 NA
ATOM     22  C   LIG    1       -2.417   3.711  -0.160  0.00  0.00    +0.122 A 
ENDBRANCH  15  17
ENDBRANCH   1  13
BRANCH   1  23
ATOM     23  C   LIG    1        2.133  -0.799  -1.331  0.00  0.00    +0.016 A 
ATOM     24  C   LIG    1        3.103  -1.806  -1.183  0.00  0.00    +0.038 A 
ATOM     25  C   LIG    1        3.568  -2.482  -2.316  0.00  0.00    +0.107 A 
ATOM     26  N   LIG    1        3.120  -2.209  -3.569  0.00  0.00    -0.254 NA
ATOM     27  C   LIG    1        2.187  -1.237  -3.709  0.00  0.00    +0.111 A 
ATOM     28  C   LIG    1        1.675  -0.518  -2.630  0.00  0.00    +0.028 A 
BRANCH  25  29
ATOM     29  C   LIG    1        4.620  -3.575  -2.201  0.00  0.00    +0.390 C 
ATOM     30  F   LIG    1        4.136  -4.747  -2.615  0.00  0.00    -0.202 F 
ATOM     31  F   LIG    1        5.707  -3.270  -2.910  0.00  0.00    -0.202 F 
ENDBRANCH  25  29
ENDBRANCH   1  23
BRANCH   3  32
ATOM     32  N   LIG    1        3.450   2.794   1.023  0.00  0.00    -0.246 N 
ATOM     33  H   LIG    1        3.966   2.941   1.878  0.00  0.00    +0.288 HD
ATOM     34  H   LIG    1        3.432   3.528   0.330  0.00  0.00    +0.288 HD
ENDBRANCH   3  32
TORSDOF 5
