REMARK  Name = DB12336
REMARK                            x       y       z     vdW  Elec       q    Type
REMARK                         _______ _______ _______ _____ _____    ______ ____
ROOT
ATOM      1  C   LIG    1        1.838  -0.330  -1.751  0.00  0.00    +0.237 C 
ATOM      2  N   LIG    1        2.195   0.642  -2.628  0.00  0.00    -0.288 N 
ATOM      3  C   LIG    1        2.814   0.365  -3.942  0.00  0.00    +0.162 C 
ATOM      4  C   LIG    1        3.084   1.766  -4.527  0.00  0.00    +0.033 C 
ATOM      5  C   LIG    1        2.079   2.671  -3.838  0.00  0.00    +0.021 C 
ATOM      6  C   LIG    1        2.002   2.080  -2.438  0.00  0.00    +0.109 C 
ATOM      7  O   LIG    1        1.837  -1.531  -2.027  0.00  0.00    -0.274 OA
ENDROOT
BRANCH   3   8
ATOM      8  C   LIG    1        4.100  -0.480  -3.850  0.00  0.00    +0.238 C 
ATOM      9  N   LIG    1        4.069  -1.640  -4.542  0.00  0.00    -0.277 N 
ATOM     10  H   LIG    1        3.238  -1.833  -5.081  0.00  0.00    +0.155 HD
ATOM     11  O   LIG    1        5.032  -0.073  -3.152  0.00  0.00    -0.273 OA
BRANCH   9  12
ATOM     12  C   LIG    1        5.056  -2.621  -4.593  0.00  0.00    +0.100 A 
ATOM     13  S   LIG    1        6.483  -2.615  -3.582  0.00  0.00    -0.047 S 
ATOM     14  C   LIG    1        6.938  -4.145  -4.267  0.00  0.00    +0.165 A 
ATOM     15  N   LIG    1        6.096  -4.587  -5.170  0.00  0.00    -0.232 NA
ATOM     16  C   LIG    1        5.061  -3.785  -5.384  0.00  0.00    +0.100 A 
BRANCH  16  17
ATOM     17  C   LIG    1        4.031  -4.189  -6.399  0.00  0.00    +0.003 A 
ATOM     18  C   LIG    1        3.423  -3.225  -7.213  0.00  0.00    +0.010 A 
ATOM     19  C   LIG    1        2.473  -3.600  -8.159  0.00  0.00    +0.001 A 
ATOM     20  C   LIG    1        2.128  -4.941  -8.297  0.00  0.00    +0.000 A 
ATOM     21  C   LIG    1        2.727  -5.912  -7.499  0.00  0.00    +0.001 A 
ATOM     22  C   LIG    1        3.677  -5.537  -6.554  0.00  0.00    +0.010 A 
ENDBRANCH  16  17
BRANCH  14  23
ATOM     23  C   LIG    1        8.143  -4.863  -3.867  0.00  0.00    +0.253 A 
ATOM     24  O   LIG    1        8.940  -4.319  -2.907  0.00  0.00    -0.442 OA
ATOM     25  C   LIG    1        9.943  -5.217  -2.773  0.00  0.00    +0.217 A 
ATOM     26  C   LIG    1        9.688  -6.245  -3.662  0.00  0.00    +0.153 A 
ATOM     27  N   LIG    1        8.573  -6.017  -4.333  0.00  0.00    -0.216 NA
ENDBRANCH  14  23
ENDBRANCH   9  12
ENDBRANCH   3   8
BRANCH   1  28
ATOM     28  C   LIG    1        1.409   0.091  -0.326  0.00  0.00    +0.162 C 
BRANCH  28  29
ATOM     29  C   LIG    1        2.051  -0.807   0.782  0.00  0.00    +0.018 C 
ATOM     30  C   LIG    1        3.602  -0.779   0.788  0.00  0.00    +0.006 C 
ATOM     31  C   LIG    1        4.136  -1.890   1.717  0.00  0.00    +0.000 C 
ATOM     32  C   LIG    1        3.596  -1.713   3.159  0.00  0.00    +0.000 C 
ATOM     33  C   LIG    1        2.063  -1.488   3.218  0.00  0.00    +0.000 C 
ATOM     34  C   LIG    1        1.625  -0.399   2.215  0.00  0.00    +0.006 C 
ENDBRANCH  28  29
BRANCH  28  36
ATOM     35  C   LIG    1       -0.871   1.034   0.064  0.00  0.00    +0.199 C 
ATOM     36  N   LIG    1       -0.054   0.032  -0.302  0.00  0.00    -0.305 N 
ATOM     37  H   LIG    1       -0.453  -0.845  -0.604  0.00  0.00    +0.149 HD
ATOM     38  O   LIG    1       -0.473   2.142   0.434  0.00  0.00    -0.278 OA
BRANCH  35  40
ATOM     39  C   LIG    1       -2.938   1.035  -1.437  0.00  0.00    -0.004 C 
ATOM     40  C   LIG    1       -2.381   0.707  -0.035  0.00  0.00    +0.012 C 
BRANCH  40  41
ATOM     41  N   LIG    1       -3.074   1.509   1.039  0.00  0.00    +0.385 N 
ATOM     42  H   LIG    1       -3.108   2.469   0.725  0.00  0.00    -0.085 HD
ATOM     43  H   LIG    1       -2.487   1.463   1.860  0.00  0.00    -0.085 HD
ATOM     44  C   LIG    1       -4.484   1.027   1.413  0.00  0.00    -0.099 C 
ENDBRANCH  40  41
ENDBRANCH  35  40
ENDBRANCH  28  36
ENDBRANCH   1  28
TORSDOF 9
