REMARK  Name = DB12612
REMARK                            x       y       z     vdW  Elec       q    Type
REMARK                         _______ _______ _______ _____ _____    ______ ____
ROOT
ATOM      1  C   LIG    1       -2.027  -0.050  -0.018  0.00  0.00    +0.203 A 
ATOM      2  N   LIG    1       -1.972   1.266  -0.003  0.00  0.00    -0.056 NA
ATOM      3  O   LIG    1       -0.607   1.539  -0.015  0.00  0.00    -0.332 OA
ATOM      4  C   LIG    1       -0.006   0.323  -0.030  0.00  0.00    +0.259 A 
ATOM      5  N   LIG    1       -0.858  -0.668  -0.031  0.00  0.00    -0.187 NA
ENDROOT
BRANCH   1  10
ATOM      6  C   LIG    1       -6.806  -0.361  -1.309  0.00  0.00    +0.085 C 
ATOM      7  C   LIG    1       -6.295   1.079  -1.423  0.00  0.00    +0.028 C 
ATOM      8  C   LIG    1       -4.777   1.026  -1.262  0.00  0.00    +0.038 C 
ATOM      9  C   LIG    1       -4.518  -0.292  -0.554  0.00  0.00    -0.032 A 
ATOM     10  C   LIG    1       -3.327  -0.808  -0.005  0.00  0.00    +0.026 A 
ATOM     11  C   LIG    1       -3.358  -2.080   0.586  0.00  0.00    +0.012 A 
ATOM     12  C   LIG    1       -4.532  -2.828   0.621  0.00  0.00    +0.001 A 
ATOM     13  C   LIG    1       -5.695  -2.325   0.044  0.00  0.00    +0.005 A 
ATOM     14  C   LIG    1       -5.686  -1.068  -0.564  0.00  0.00    -0.027 A 
BRANCH   6  15
ATOM     15  N   LIG    1       -8.072  -0.511  -0.597  0.00  0.00    -0.307 NA
ATOM     16  H   LIG    1       -8.033  -0.043   0.298  0.00  0.00    +0.123 HD
BRANCH  15  17
ATOM     17  C   LIG    1       -9.204  -0.016  -1.373  0.00  0.00    +0.109 C 
BRANCH  17  18
ATOM     18  C   LIG    1      -10.519  -0.144  -0.585  0.00  0.00    +0.171 C 
BRANCH  18  19
ATOM     19  O   LIG    1      -10.525   0.705   0.547  0.00  0.00    -0.394 OA
ATOM     20  H   LIG    1      -11.356   0.587   1.013  0.00  0.00    +0.209 HD
ENDBRANCH  18  19
ENDBRANCH  17  18
ENDBRANCH  15  17
ENDBRANCH   6  15
ENDBRANCH   1  10
BRANCH   4  21
ATOM     21  C   LIG    1        1.488   0.254  -0.037  0.00  0.00    +0.041 A 
ATOM     22  C   LIG    1        2.252   1.423  -0.051  0.00  0.00    +0.017 A 
ATOM     23  C   LIG    1        3.644   1.362  -0.056  0.00  0.00    +0.048 A 
ATOM     24  C   LIG    1        4.314   0.127  -0.042  0.00  0.00    +0.138 A 
ATOM     25  C   LIG    1        3.543  -1.050  -0.032  0.00  0.00    +0.094 A 
ATOM     26  C   LIG    1        2.146  -0.980  -0.029  0.00  0.00    +0.035 A 
BRANCH  25  27
ATOM     27  C   LIG    1        4.173  -2.366  -0.022  0.00  0.00    +0.103 C 
ATOM     28  N   LIG    1        4.673  -3.410  -0.014  0.00  0.00    -0.191 NA
ENDBRANCH  25  27
BRANCH  24  29
ATOM     29  O   LIG    1        5.697   0.006  -0.057  0.00  0.00    -0.488 OA
BRANCH  29  30
ATOM     30  C   LIG    1        6.549   1.143   0.103  0.00  0.00    +0.167 C 
ATOM     31  C   LIG    1        6.537   1.647   1.560  0.00  0.00    +0.051 C 
ATOM     32  C   LIG    1        7.956   0.706  -0.331  0.00  0.00    +0.051 C 
ENDBRANCH  29  30
ENDBRANCH  24  29
ENDBRANCH   4  21
TORSDOF 9
