REMARK  Name = DB12248
REMARK                            x       y       z     vdW  Elec       q    Type
REMARK                         _______ _______ _______ _____ _____    ______ ____
ROOT
ATOM      1  C   LIG    1        1.565  -0.099   0.123  0.00  0.00    +0.129 C 
ENDROOT
BRANCH   1   2
ATOM      2  C   LIG    1        2.155  -1.515   0.044  0.00  0.00    -0.003 A 
ATOM      3  C   LIG    1        2.322  -2.164  -1.195  0.00  0.00    +0.047 A 
ATOM      4 CL   LIG    1        1.882  -1.406  -2.689  0.00  0.00    -0.083 Cl
ATOM      5  C   LIG    1        2.854  -3.454  -1.247  0.00  0.00    +0.020 A 
ATOM      6  C   LIG    1        3.217  -4.115  -0.075  0.00  0.00    +0.001 A 
ATOM      7  C   LIG    1        3.050  -3.487   1.156  0.00  0.00    +0.000 A 
ATOM      8  C   LIG    1        2.521  -2.199   1.215  0.00  0.00    +0.007 A 
ENDBRANCH   1   2
BRANCH   1   9
ATOM      9  O   LIG    1        1.973   0.620   1.277  0.00  0.00    -0.389 OA
ATOM     10  H   LIG    1        2.926   0.739   1.242  0.00  0.00    +0.210 HD
ENDBRANCH   1   9
BRANCH   1  11
ATOM     11  C   LIG    1        0.020  -0.145   0.050  0.00  0.00    -0.045 C 
BRANCH  11  12
ATOM     12  N   LIG    1       -0.572   1.281   0.020  0.00  0.00    +0.384 N 
ATOM     13  H   LIG    1       -0.192   1.757  -0.785  0.00  0.00    -0.085 HD
ATOM     14  H   LIG    1       -0.236   1.767   0.840  0.00  0.00    -0.085 HD
BRANCH  12  16
ATOM     15  C   LIG    1       -2.378   2.963  -0.057  0.00  0.00    -0.011 C 
ATOM     16  C   LIG    1       -2.111   1.443  -0.020  0.00  0.00    -0.077 C 
ATOM     17  C   LIG    1       -2.663   0.771  -1.298  0.00  0.00    -0.011 C 
ATOM     18  C   LIG    1       -2.722   0.825   1.258  0.00  0.00    -0.011 C 
ENDBRANCH  12  16
ENDBRANCH  11  12
ENDBRANCH   1  11
TORSDOF 5
