REMARK  Name = DB12155
REMARK                            x       y       z     vdW  Elec       q    Type
REMARK                         _______ _______ _______ _____ _____    ______ ____
ROOT
ATOM      1  C   LIG    1        2.161   1.351   0.000  0.00  0.00    +0.171 A 
ATOM      2  C   LIG    1        1.665   2.651   0.000  0.00  0.00    +0.065 A 
ATOM      3  C   LIG    1        2.771   3.509   0.000  0.00  0.00    +0.072 A 
ATOM      4  C   LIG    1        2.835   4.969   0.000  0.00  0.00    +0.198 C 
ATOM      5  O   LIG    1        1.844   5.703   0.000  0.00  0.00    -0.287 OA
ATOM      6  C   LIG    1        4.252   5.498   0.000  0.00  0.00    +0.033 A 
ATOM      7  C   LIG    1        4.447   6.889   0.000  0.00  0.00    +0.012 A 
ATOM      8  C   LIG    1        5.726   7.439   0.000  0.00  0.00    +0.001 A 
ATOM      9  C   LIG    1        6.839   6.606   0.000  0.00  0.00    +0.001 A 
ATOM     10  C   LIG    1        6.673   5.225   0.000  0.00  0.00    +0.012 A 
ATOM     11  C   LIG    1        5.393   4.646   0.000  0.00  0.00    +0.036 A 
ATOM     12  C   LIG    1        5.284   3.140   0.000  0.00  0.00    +0.229 C 
ATOM     13  O   LIG    1        6.260   2.388   0.000  0.00  0.00    -0.283 OA
ATOM     14  C   LIG    1        3.898   2.691   0.000  0.00  0.00    +0.187 A 
ATOM     15  O   LIG    1        3.522   1.384   0.000  0.00  0.00    -0.448 OA
ENDROOT
BRANCH   1  17
ATOM     16  C   LIG    1       -0.016  -0.015   0.000  0.00  0.00    +0.095 C 
ATOM     17  C   LIG    1        1.511   0.047   0.000  0.00  0.00    +0.195 C 
ATOM     18  O   LIG    1        2.148  -1.006   0.000  0.00  0.00    -0.289 OA
ENDBRANCH   1  17
TORSDOF 1
