REMARK  Name = DB12883
REMARK                            x       y       z     vdW  Elec       q    Type
REMARK                         _______ _______ _______ _____ _____    ______ ____
ROOT
ATOM      1  C   LIG    1       -2.249  -1.192   0.004  0.00  0.00    +0.006 A 
ATOM      2  C   LIG    1       -2.880   0.051  -0.001  0.00  0.00    +0.049 A 
ATOM      3  C   LIG    1       -2.112   1.214  -0.013  0.00  0.00    +0.164 A 
ATOM      4  O   LIG    1       -2.786   2.418   0.032  0.00  0.00    -0.485 OA
ATOM      5  C   LIG    1       -1.996   3.547  -0.353  0.00  0.00    +0.270 C 
ATOM      6  C   LIG    1       -0.606   3.483   0.318  0.00  0.00    +0.270 C 
ATOM      7  O   LIG    1        0.072   2.281  -0.057  0.00  0.00    -0.483 OA
ATOM      8  C   LIG    1       -0.709   1.139  -0.000  0.00  0.00    +0.183 A 
ATOM      9  C   LIG    1       -0.068  -0.110  -0.005  0.00  0.00    +0.076 A 
ATOM     10  C   LIG    1       -0.856  -1.272   0.003  0.00  0.00    +0.027 A 
ENDROOT
BRANCH   9  11
ATOM     11  N   LIG    1        1.316  -0.192  -0.003  0.00  0.00    -0.331 N 
ATOM     12  C   LIG    1        1.972  -0.789  -1.179  0.00  0.00    +0.086 C 
ATOM     13  C   LIG    1        3.499  -0.559  -1.227  0.00  0.00    -0.063 C 
ATOM     14  N   LIG    1        4.141  -1.113   0.051  0.00  0.00    +0.381 N 
ATOM     15  H   LIG    1        4.002  -2.112   0.099  0.00  0.00    -0.086 HD
ATOM     16  H   LIG    1        5.137  -0.940   0.045  0.00  0.00    -0.086 HD
ATOM     17  C   LIG    1        3.494  -0.437   1.267  0.00  0.00    -0.063 C 
ATOM     18  C   LIG    1        1.965  -0.660   1.233  0.00  0.00    +0.086 C 
ENDBRANCH   9  11
TORSDOF 1
