REMARK  Name = DB12692
REMARK                            x       y       z     vdW  Elec       q    Type
REMARK                         _______ _______ _______ _____ _____    ______ ____
ROOT
ATOM      1  C   LIG    1        1.575  -0.399   0.267  0.00  0.00    +0.290 C 
ENDROOT
BRANCH   1   3
ATOM      2  C   LIG    1       -0.717   0.596   0.277  0.00  0.00    +0.215 C 
ATOM      3  N   LIG    1        0.123  -0.438   0.096  0.00  0.00    -0.283 N 
ATOM      4  H   LIG    1       -0.238  -1.292  -0.304  0.00  0.00    +0.152 HD
ATOM      5  O   LIG    1       -0.343   1.710   0.647  0.00  0.00    -0.276 OA
BRANCH   2   6
ATOM      6  C   LIG    1       -2.199   0.316  -0.018  0.00  0.00    +0.096 C 
BRANCH   6   7
ATOM      7  C   LIG    1       -3.011   1.563  -0.430  0.00  0.00    +0.009 C 
BRANCH   7   8
ATOM      8  C   LIG    1       -4.471   1.224  -0.781  0.00  0.00    +0.001 C 
BRANCH   8   9
ATOM      9  C   LIG    1       -5.289   2.455  -1.209  0.00  0.00    +0.001 C 
BRANCH   9  10
ATOM     10  C   LIG    1       -6.749   2.108  -1.570  0.00  0.00    +0.015 C 
BRANCH  10  11
ATOM     11  C   LIG    1       -7.591   3.303  -2.066  0.00  0.00    +0.084 C 
BRANCH  11  12
ATOM     12  N   LIG    1       -7.858   4.317  -1.031  0.00  0.00    -0.283 NA
ATOM     13  H   LIG    1       -7.553   4.090  -0.095  0.00  0.00    +0.125 HD
BRANCH  12  14
ATOM     14  C   LIG    1       -8.494   5.483  -1.177  0.00  0.00    +0.167 C 
BRANCH  14  15
ATOM     15  N   LIG    1       -9.015   5.899  -2.329  0.00  0.00    -0.297 NA
ATOM     16  H   LIG    1       -8.948   5.315  -3.150  0.00  0.00    +0.121 HD
ATOM     17  H   LIG    1       -9.479   6.794  -2.379  0.00  0.00    +0.121 HD
ENDBRANCH  14  15
BRANCH  14  18
ATOM     18  N   LIG    1       -8.612   6.271  -0.119  0.00  0.00    -0.297 NA
ATOM     19  H   LIG    1       -7.987   6.158   0.666  0.00  0.00    +0.121 HD
ATOM     20  H   LIG    1       -9.331   6.980  -0.097  0.00  0.00    +0.121 HD
ENDBRANCH  14  18
ENDBRANCH  12  14
ENDBRANCH  11  12
ENDBRANCH  10  11
ENDBRANCH   9  10
ENDBRANCH   8   9
ENDBRANCH   7   8
ENDBRANCH   6   7
ENDBRANCH   2   6
ENDBRANCH   1   3
BRANCH   1  21
ATOM     21  C   LIG    1        2.282  -0.170  -1.084  0.00  0.00    +0.260 C 
ATOM     22  N   LIG    1        3.145   0.860  -1.130  0.00  0.00    -0.312 N 
ATOM     23  H   LIG    1        3.290   1.414  -0.298  0.00  0.00    +0.149 HD
ATOM     24  O   LIG    1        2.058  -0.922  -2.034  0.00  0.00    -0.271 OA
BRANCH  22  25
ATOM     25  C   LIG    1        3.889   1.257  -2.323  0.00  0.00    +0.104 C 
BRANCH  25  26
ATOM     26  C   LIG    1        3.081   2.149  -3.289  0.00  0.00    +0.017 C 
BRANCH  26  27
ATOM     27  C   LIG    1        2.604   3.476  -2.665  0.00  0.00    -0.018 C 
BRANCH  27  28
ATOM     28  C   LIG    1        1.899   4.387  -3.680  0.00  0.00    -0.083 C 
BRANCH  28  29
ATOM     29  N   LIG    1        1.484   5.692  -2.983  0.00  0.00    +0.379 N 
ATOM     30  H   LIG    1        2.308   6.114  -2.578  0.00  0.00    -0.086 HD
ATOM     31  H   LIG    1        0.847   5.469  -2.231  0.00  0.00    -0.086 HD
BRANCH  29  32
ATOM     32  C   LIG    1        0.818   6.712  -3.920  0.00  0.00    -0.084 C 
BRANCH  32  33
ATOM     33  C   LIG    1        0.463   7.979  -3.120  0.00  0.00    -0.039 C 
BRANCH  33  34
ATOM     34  C   LIG    1       -0.143   9.111  -3.971  0.00  0.00    -0.088 C 
BRANCH  34  35
ATOM     35  N   LIG    1       -1.549   8.742  -4.463  0.00  0.00    +0.378 N 
ATOM     36  H   LIG    1       -1.514   7.919  -5.048  0.00  0.00    -0.090 HD
ATOM     37  H   LIG    1       -2.158   8.559  -3.679  0.00  0.00    -0.090 HD
ATOM     38  H   LIG    1       -1.937   9.504  -5.002  0.00  0.00    -0.090 HD
ENDBRANCH  34  35
ENDBRANCH  33  34
ENDBRANCH  32  33
ENDBRANCH  29  32
ENDBRANCH  28  29
ENDBRANCH  27  28
ENDBRANCH  26  27
ENDBRANCH  25  26
ENDBRANCH  22  25
ENDBRANCH   1  21
BRANCH   1  39
ATOM     39  O   LIG    1        2.060  -1.602   0.827  0.00  0.00    -0.367 OA
ATOM     40  H   LIG    1        3.019  -1.569   0.841  0.00  0.00    +0.212 HD
ENDBRANCH   1  39
TORSDOF 22
