REMARK  Name = DB12081
REMARK                            x       y       z     vdW  Elec       q    Type
REMARK                         _______ _______ _______ _____ _____    ______ ____
ROOT
ATOM      1  C   LIG    1       -2.636  -4.117   4.354  0.00  0.00    +0.020 C 
ATOM      2  C   LIG    1       -3.234  -2.689   4.291  0.00  0.00    +0.011 C 
ATOM      3  C   LIG    1       -2.410  -1.864   3.254  0.00  0.00    -0.060 C 
ATOM      4  C   LIG    1       -1.468  -0.947   3.612  0.00  0.00    -0.026 C 
ATOM      5  C   LIG    1       -0.548  -0.178   2.662  0.00  0.00    +0.037 C 
ATOM      6  C   LIG    1       -0.460  -0.892   1.282  0.00  0.00    +0.010 C 
ATOM      7  C   LIG    1        0.366  -2.217   1.446  0.00  0.00    +0.015 C 
ATOM      8  C   LIG    1        0.033  -0.016   0.070  0.00  0.00    +0.132 C 
ATOM      9  C   LIG    1       -0.547  -0.773  -1.163  0.00  0.00    +0.043 C 
ATOM     10  C   LIG    1       -1.811  -1.506  -0.668  0.00  0.00    +0.008 C 
ATOM     11  C   LIG    1       -1.913  -1.179   0.831  0.00  0.00    +0.006 C 
ATOM     12  C   LIG    1       -2.660  -2.184   1.754  0.00  0.00    +0.020 C 
ATOM     13  C   LIG    1       -4.172  -2.181   1.464  0.00  0.00    +0.012 C 
ATOM     14  C   LIG    1       -4.936  -3.155   2.359  0.00  0.00    +0.032 C 
ATOM     15  C   LIG    1       -4.717  -2.791   3.822  0.00  0.00    -0.056 C 
ATOM     16  C   LIG    1       -5.775  -2.640   4.655  0.00  0.00    +0.046 C 
ATOM     17  C   LIG    1       -5.681  -2.380   6.083  0.00  0.00    +0.156 C 
ATOM     18  O   LIG    1       -6.677  -2.144   6.765  0.00  0.00    -0.293 OA
ATOM     19  C   LIG    1       -4.292  -2.560   6.697  0.00  0.00    +0.080 C 
ATOM     20  C   LIG    1       -3.201  -2.063   5.730  0.00  0.00    +0.023 C 
ENDROOT
BRANCH   8  21
ATOM     21  O   LIG    1       -0.486   1.311   0.091  0.00  0.00    -0.380 OA
ATOM     22  H   LIG    1       -1.444   1.262   0.060  0.00  0.00    +0.211 HD
ENDBRANCH   8  21
BRANCH   8  23
ATOM     23  C   LIG    1        1.587   0.133   0.016  0.00  0.00    +0.190 C 
ATOM     24  O   LIG    1        2.276  -0.659  -0.634  0.00  0.00    -0.292 OA
BRANCH  23  25
ATOM     25  C   LIG    1        2.236   1.293   0.804  0.00  0.00    +0.233 C 
BRANCH  25  26
ATOM     26  O   LIG    1        3.649   1.239   0.712  0.00  0.00    -0.387 OA
ATOM     27  H   LIG    1        4.016   1.996   1.175  0.00  0.00    +0.210 HD
ENDBRANCH  25  26
ENDBRANCH  23  25
ENDBRANCH   8  23
TORSDOF 4
