REMARK  Name = DB12507
REMARK                            x       y       z     vdW  Elec       q    Type
REMARK                         _______ _______ _______ _____ _____    ______ ____
ROOT
ATOM      1  C   LIG    1        4.048   1.538  -1.993  0.00  0.00    +0.163 C 
ATOM      2  N   LIG    1        5.118   2.295  -2.692  0.00  0.00    -0.287 N 
ATOM      3  C   LIG    1        5.574   2.245  -3.960  0.00  0.00    +0.249 C 
ATOM      4  O   LIG    1        4.814   2.009  -4.903  0.00  0.00    -0.272 OA
ATOM      5  C   LIG    1        5.521   3.114  -1.519  0.00  0.00    +0.111 C 
ATOM      6  C   LIG    1        4.485   2.297  -0.718  0.00  0.00    +0.051 C 
ENDROOT
BRANCH   1   9
ATOM      7  N   LIG    1        1.726   0.879  -2.398  0.00  0.00    -0.310 N 
ATOM      8  H   LIG    1        2.049  -0.036  -2.119  0.00  0.00    +0.149 HD
ATOM      9  C   LIG    1        2.609   1.892  -2.425  0.00  0.00    +0.234 C 
ATOM     10  O   LIG    1        2.314   3.042  -2.762  0.00  0.00    -0.274 OA
BRANCH   7  11
ATOM     11  C   LIG    1        0.302   0.991  -2.720  0.00  0.00    +0.139 C 
BRANCH  11  15
ATOM     12  C   LIG    1       -1.944   3.564  -0.014  0.00  0.00    +0.069 A 
ATOM     13  C   LIG    1       -1.261   2.421   0.452  0.00  0.00    +0.016 A 
ATOM     14  C   LIG    1       -0.548   1.595  -0.412  0.00  0.00    +0.006 A 
ATOM     15  C   LIG    1       -0.494   1.887  -1.774  0.00  0.00    -0.030 A 
ATOM     16  C   LIG    1       -1.167   3.003  -2.265  0.00  0.00    +0.006 A 
ATOM     17  C   LIG    1       -1.879   3.826  -1.397  0.00  0.00    +0.016 A 
BRANCH  12  19
ATOM     18  N   LIG    1       -3.325   5.480   0.409  0.00  0.00    +0.153 NA
ATOM     19  C   LIG    1       -2.709   4.475   0.900  0.00  0.00    +0.363 C 
BRANCH  19  20
ATOM     20  N   LIG    1       -2.647   4.094   2.231  0.00  0.00    -0.243 N 
ATOM     21  H   LIG    1       -2.122   3.280   2.512  0.00  0.00    +0.289 HD
ATOM     22  H   LIG    1       -3.124   4.637   2.937  0.00  0.00    +0.289 HD
ENDBRANCH  19  20
BRANCH  18  24
ATOM     23  C   LIG    1       -4.649   7.320   0.790  0.00  0.00    +0.347 C 
ATOM     24  O   LIG    1       -3.983   6.229   1.404  0.00  0.00    -0.300 OA
ENDBRANCH  18  24
ENDBRANCH  12  19
ENDBRANCH  11  15
ENDBRANCH   7  11
ENDBRANCH   1   9
BRANCH   3  25
ATOM     25  C   LIG    1        7.056   2.634  -4.201  0.00  0.00    +0.230 C 
BRANCH  25  26
ATOM     26  C   LIG    1        8.008   1.586  -3.615  0.00  0.00    -0.005 A 
ATOM     27  C   LIG    1        8.867   1.932  -2.566  0.00  0.00    +0.027 A 
ATOM     28  C   LIG    1        9.728   0.983  -2.018  0.00  0.00    +0.045 A 
ATOM     29 CL   LIG    1       10.773   1.418  -0.715  0.00  0.00    -0.083 Cl
ATOM     30  C   LIG    1        9.745  -0.317  -2.522  0.00  0.00    +0.065 A 
ATOM     31  C   LIG    1        8.908  -0.684  -3.578  0.00  0.00    +0.129 A 
ATOM     32  C   LIG    1        8.037   0.277  -4.116  0.00  0.00    +0.052 A 
BRANCH  31  33
ATOM     33  O   LIG    1        8.980  -1.993  -4.010  0.00  0.00    -0.434 OA
BRANCH  33  34
ATOM     34  C   LIG    1        8.493  -2.320  -5.309  0.00  0.00    +0.541 C 
ATOM     35  F   LIG    1        9.079  -3.443  -5.718  0.00  0.00    -0.166 F 
ATOM     36  F   LIG    1        7.172  -2.503  -5.290  0.00  0.00    -0.166 F 
ENDBRANCH  33  34
ENDBRANCH  31  33
ENDBRANCH  25  26
BRANCH  25  37
ATOM     37  O   LIG    1        7.285   2.829  -5.588  0.00  0.00    -0.378 OA
ATOM     38  H   LIG    1        6.689   3.514  -5.902  0.00  0.00    +0.211 HD
ENDBRANCH  25  37
ENDBRANCH   3  25
TORSDOF 11
