REMARK  Name = DB12951
REMARK                            x       y       z     vdW  Elec       q    Type
REMARK                         _______ _______ _______ _____ _____    ______ ____
ROOT
ATOM      1  C   LIG    1       -0.418   2.280   1.045  0.00  0.00    +0.218 C 
ATOM      2  O   LIG    1        0.347   2.258   2.013  0.00  0.00    -0.275 OA
ATOM      3  N   LIG    1       -0.616   1.196   0.268  0.00  0.00    -0.315 N 
ATOM      4  H   LIG    1       -1.258   1.272  -0.508  0.00  0.00    +0.149 HD
ENDROOT
BRANCH   1   5
ATOM      5  C   LIG    1       -1.181   3.595   0.702  0.00  0.00    +0.039 C 
ATOM      6  C   LIG    1       -2.128   3.453  -0.522  0.00  0.00    +0.020 C 
ATOM      7  C   LIG    1       -2.028   4.019   1.929  0.00  0.00    +0.020 C 
ATOM      8  C   LIG    1       -0.145   4.706   0.395  0.00  0.00    +0.020 C 
ENDBRANCH   1   5
BRANCH   3   9
ATOM      9  C   LIG    1        0.028  -0.104   0.446  0.00  0.00    +0.105 C 
BRANCH   9  10
ATOM     10  C   LIG    1        1.474  -0.157  -0.084  0.00  0.00    +0.030 C 
BRANCH  10  11
ATOM     11  C   LIG    1        2.103  -1.569   0.048  0.00  0.00    +0.122 C 
BRANCH  11  12
ATOM     12  C   LIG    1        3.541  -1.708  -0.510  0.00  0.00    +0.305 C 
ATOM     13  O   LIG    1        4.061  -2.842  -0.407  0.00  0.00    -0.251 OA
BRANCH  12  14
ATOM     14  O   LIG    1        4.115  -0.722  -1.027  0.00  0.00    -0.481 OA
ATOM     15  H   LIG    1        4.985  -0.809  -1.363  0.00  0.00    +0.295 HD
ENDBRANCH  12  14
ENDBRANCH  11  12
ENDBRANCH  10  11
ENDBRANCH   9  10
ENDBRANCH   3   9
TORSDOF 6
