REMARK  Name = DB12608
REMARK                            x       y       z     vdW  Elec       q    Type
REMARK                         _______ _______ _______ _____ _____    ______ ____
ROOT
ATOM      1  C   LIG    1       -1.939  -0.985   0.988  0.00  0.00    +0.004 A 
ATOM      2  C   LIG    1       -2.524   0.267   0.806  0.00  0.00    +0.045 A 
ATOM      3  C   LIG    1       -1.768   1.349   0.350  0.00  0.00    +0.121 A 
ATOM      4  C   LIG    1       -0.403   1.154   0.080  0.00  0.00    +0.051 A 
ATOM      5  C   LIG    1        0.194  -0.101   0.260  0.00  0.00    -0.016 A 
ATOM      6  C   LIG    1       -0.585  -1.169   0.715  0.00  0.00    +0.006 A 
ENDROOT
BRANCH   3   7
ATOM      7  O   LIG    1       -2.434   2.550   0.194  0.00  0.00    -0.492 OA
BRANCH   7   8
ATOM      8  C   LIG    1       -1.720   3.689  -0.282  0.00  0.00    +0.232 C 
BRANCH   8   9
ATOM      9  C   LIG    1       -2.679   4.891  -0.396  0.00  0.00    +0.027 C 
ATOM     10  C   LIG    1       -3.278   5.295   0.973  0.00  0.00    +0.007 C 
ATOM     11  C   LIG    1       -4.288   6.452   0.822  0.00  0.00    +0.000 C 
ATOM     12  C   LIG    1       -3.653   7.673   0.121  0.00  0.00    +0.000 C 
ATOM     13  C   LIG    1       -2.951   7.295  -1.202  0.00  0.00    +0.000 C 
ATOM     14  C   LIG    1       -1.970   6.122  -1.007  0.00  0.00    +0.007 C 
ENDBRANCH   8   9
ENDBRANCH   7   8
ENDBRANCH   3   7
BRANCH   5  15
ATOM     15  C   LIG    1        1.675  -0.313  -0.053  0.00  0.00    +0.143 C 
BRANCH  15  16
ATOM     16  O   LIG    1        2.500   0.624   0.613  0.00  0.00    -0.387 OA
ATOM     17  H   LIG    1        2.409   0.493   1.560  0.00  0.00    +0.210 HD
ENDBRANCH  15  16
BRANCH  15  18
ATOM     18  C   LIG    1        1.986  -0.236  -1.565  0.00  0.00    +0.016 C 
BRANCH  18  19
ATOM     19  C   LIG    1        1.259  -1.308  -2.398  0.00  0.00    -0.084 C 
BRANCH  19  20
ATOM     20  N   LIG    1        1.636  -1.167  -3.876  0.00  0.00    +0.378 N 
ATOM     21  H   LIG    1        1.373  -0.253  -4.217  0.00  0.00    -0.090 HD
ATOM     22  H   LIG    1        2.632  -1.284  -3.994  0.00  0.00    -0.090 HD
ATOM     23  H   LIG    1        1.159  -1.868  -4.425  0.00  0.00    -0.090 HD
ENDBRANCH  19  20
ENDBRANCH  18  19
ENDBRANCH  15  18
ENDBRANCH   5  15
TORSDOF 8
