REMARK  Name = DB12526
REMARK                            x       y       z     vdW  Elec       q    Type
REMARK                         _______ _______ _______ _____ _____    ______ ____
ROOT
ATOM      1  C   LIG    1       -2.528  -1.407   0.062  0.00  0.00    +0.123 A 
ATOM      2  C   LIG    1       -3.195  -0.173   0.136  0.00  0.00    -0.021 A 
ATOM      3  C   LIG    1       -2.499   0.977   0.517  0.00  0.00    +0.027 A 
ATOM      4  C   LIG    1       -1.137   0.927   0.808  0.00  0.00    +0.063 A 
ATOM      5 CL   LIG    1       -0.376   2.383   1.359  0.00  0.00    -0.082 Cl
ATOM      6  C   LIG    1       -0.448  -0.294   0.689  0.00  0.00    +0.055 A 
ATOM      7  C   LIG    1       -1.153  -1.452   0.349  0.00  0.00    +0.070 A 
ENDROOT
BRANCH   6   8
ATOM      8  N   LIG    1        0.919  -0.442   0.974  0.00  0.00    -0.284 N 
ATOM      9  H   LIG    1        1.171  -1.243   1.535  0.00  0.00    +0.155 HD
ATOM     10  C   LIG    1        1.920   0.226   0.363  0.00  0.00    +0.215 C 
ATOM     11  O   LIG    1        1.750   1.036  -0.551  0.00  0.00    -0.276 OA
BRANCH  10  12
ATOM     12  C   LIG    1        3.345  -0.086   0.837  0.00  0.00    +0.077 C 
BRANCH  12  13
ATOM     13  C   LIG    1        4.080   1.190   1.310  0.00  0.00    -0.070 C 
BRANCH  13  14
ATOM     14  N   LIG    1        5.597   0.941   1.503  0.00  0.00    +0.380 N 
ATOM     15  H   LIG    1        5.971   0.550   0.649  0.00  0.00    -0.082 HD
ATOM     16  C   LIG    1        6.309   2.297   1.740  0.00  0.00    -0.075 C 
ATOM     17  C   LIG    1        7.822   2.060   1.896  0.00  0.00    +0.026 C 
ATOM     18  C   LIG    1        8.100   1.095   3.061  0.00  0.00    +0.175 C 
ATOM     19  C   LIG    1        7.400  -0.255   2.794  0.00  0.00    +0.026 C 
ATOM     20  C   LIG    1        5.879  -0.060   2.653  0.00  0.00    -0.075 C 
BRANCH  18  21
ATOM     21  O   LIG    1        9.511   0.958   3.230  0.00  0.00    -0.447 OA
BRANCH  21  22
ATOM     22  C   LIG    1       10.054   0.506   4.384  0.00  0.00    +0.405 C 
ATOM     23  N   LIG    1       11.438   0.499   4.243  0.00  0.00    -0.251 N 
ATOM     24  H   LIG    1       11.789   0.731   3.326  0.00  0.00    +0.158 HD
ATOM     25  O   LIG    1        9.403   0.157   5.370  0.00  0.00    -0.226 OA
BRANCH  23  26
ATOM     26  C   LIG    1       12.417   0.103   5.175  0.00  0.00    +0.044 A 
ATOM     27  C   LIG    1       13.662  -0.373   4.700  0.00  0.00    +0.003 A 
ATOM     28  C   LIG    1       14.616  -0.798   5.636  0.00  0.00    +0.010 A 
ATOM     29  C   LIG    1       14.368  -0.735   7.005  0.00  0.00    +0.001 A 
ATOM     30  C   LIG    1       13.153  -0.239   7.467  0.00  0.00    +0.002 A 
ATOM     31  C   LIG    1       12.184   0.180   6.559  0.00  0.00    +0.024 A 
BRANCH  27  32
ATOM     32  C   LIG    1       14.011  -0.441   3.248  0.00  0.00    -0.016 A 
ATOM     33  C   LIG    1       13.864   0.679   2.418  0.00  0.00    +0.008 A 
ATOM     34  C   LIG    1       14.195   0.610   1.067  0.00  0.00    +0.001 A 
ATOM     35  C   LIG    1       14.683  -0.581   0.537  0.00  0.00    +0.000 A 
ATOM     36  C   LIG    1       14.845  -1.701   1.348  0.00  0.00    +0.001 A 
ATOM     37  C   LIG    1       14.513  -1.628   2.698  0.00  0.00    +0.008 A 
ENDBRANCH  27  32
ENDBRANCH  23  26
ENDBRANCH  21  22
ENDBRANCH  18  21
ENDBRANCH  13  14
ENDBRANCH  12  13
ENDBRANCH  10  12
ENDBRANCH   6   8
BRANCH   1  39
ATOM     38  C   LIG    1       -2.637  -3.786  -0.415  0.00  0.00    +0.277 C 
ATOM     39  O   LIG    1       -3.273  -2.517  -0.301  0.00  0.00    -0.495 OA
ENDBRANCH   1  39
BRANCH   2  40
ATOM     40  C   LIG    1       -4.683  -0.065  -0.174  0.00  0.00    -0.043 C 
BRANCH  40  41
ATOM     41  N   LIG    1       -5.005  -0.401  -1.637  0.00  0.00    +0.384 N 
ATOM     42  H   LIG    1       -4.666  -1.337  -1.808  0.00  0.00    -0.085 HD
ATOM     43  H   LIG    1       -4.491   0.224  -2.243  0.00  0.00    -0.085 HD
BRANCH  41  44
ATOM     44  C   LIG    1       -6.496  -0.359  -2.013  0.00  0.00    -0.046 C 
BRANCH  44  45
ATOM     45  C   LIG    1       -6.741  -1.148  -3.322  0.00  0.00    +0.128 C 
BRANCH  45  46
ATOM     46  C   LIG    1       -6.334  -2.629  -3.212  0.00  0.00    -0.012 A 
ATOM     47  C   LIG    1       -5.069  -3.099  -3.625  0.00  0.00    +0.008 A 
ATOM     48  C   LIG    1       -4.008  -2.243  -4.210  0.00  0.00    +0.016 A 
ATOM     49  C   LIG    1       -2.799  -2.749  -4.537  0.00  0.00    +0.071 A 
ATOM     50  C   LIG    1       -2.436  -4.144  -4.345  0.00  0.00    +0.249 A 
ATOM     51  N   LIG    1       -3.444  -4.900  -3.843  0.00  0.00    -0.319 N 
ATOM     52  H   LIG    1       -3.213  -5.873  -3.706  0.00  0.00    +0.169 HD
ATOM     53  O   LIG    1       -1.325  -4.607  -4.593  0.00  0.00    -0.268 OA
ATOM     54  C   LIG    1       -4.731  -4.459  -3.459  0.00  0.00    +0.091 A 
ATOM     55  C   LIG    1       -5.649  -5.350  -2.890  0.00  0.00    +0.141 A 
ATOM     56  C   LIG    1       -6.899  -4.886  -2.489  0.00  0.00    +0.048 A 
ATOM     57  C   LIG    1       -7.234  -3.543  -2.645  0.00  0.00    +0.010 A 
BRANCH  55  58
ATOM     58  O   LIG    1       -5.341  -6.676  -2.710  0.00  0.00    -0.505 OA
ATOM     59  H   LIG    1       -6.067  -7.186  -2.341  0.00  0.00    +0.292 HD
ENDBRANCH  55  58
ENDBRANCH  45  46
BRANCH  45  60
ATOM     60  O   LIG    1       -8.106  -0.976  -3.652  0.00  0.00    -0.389 OA
ATOM     61  H   LIG    1       -8.252  -1.321  -4.537  0.00  0.00    +0.210 HD
ENDBRANCH  45  60
ENDBRANCH  44  45
ENDBRANCH  41  44
ENDBRANCH  40  41
ENDBRANCH   2  40
TORSDOF 16
