REMARK  Name = DB12642
REMARK                            x       y       z     vdW  Elec       q    Type
REMARK                         _______ _______ _______ _____ _____    ______ ____
ROOT
ATOM      1  C   LIG    1        2.128  -3.802  -1.496  0.00  0.00    +0.287 A 
ATOM      2  O   LIG    1        2.884  -4.318  -0.487  0.00  0.00    -0.418 OA
ATOM      3  C   LIG    1        3.191  -5.598  -0.839  0.00  0.00    +0.216 A 
ATOM      4  C   LIG    1        2.622  -5.889  -2.075  0.00  0.00    +0.060 A 
ATOM      5  C   LIG    1        1.940  -4.743  -2.493  0.00  0.00    +0.091 A 
ENDROOT
BRANCH   3   6
ATOM      6  C   LIG    1        4.004  -6.408   0.060  0.00  0.00    +0.375 C 
ATOM      7  O   LIG    1        4.322  -7.574  -0.183  0.00  0.00    -0.241 OA
BRANCH   6   8
ATOM      8  O   LIG    1        4.351  -5.713   1.172  0.00  0.00    -0.450 OA
BRANCH   8   9
ATOM      9  C   LIG    1        5.149  -6.303   2.199  0.00  0.00    +0.328 C 
BRANCH   9  10
ATOM     10  C   LIG    1        5.439  -5.268   3.310  0.00  0.00    +0.254 C 
ATOM     11  N   LIG    1        6.104  -5.668   4.432  0.00  0.00    -0.291 N 
ATOM     12  C   LIG    1        6.648  -7.019   4.614  0.00  0.00    +0.132 C 
ATOM     13  O   LIG    1        5.080  -4.098   3.151  0.00  0.00    -0.272 OA
BRANCH  11  14
ATOM     14  C   LIG    1        6.393  -4.771   5.577  0.00  0.00    +0.228 C 
BRANCH  14  15
ATOM     15  C   LIG    1        5.140  -4.187   6.263  0.00  0.00    +0.325 C 
ATOM     16  O   LIG    1        4.022  -4.700   6.156  0.00  0.00    -0.249 OA
BRANCH  15  17
ATOM     17  O   LIG    1        5.442  -3.105   7.008  0.00  0.00    -0.464 OA
BRANCH  17  18
ATOM     18  C   LIG    1        4.429  -2.414   7.728  0.00  0.00    +0.229 C 
ATOM     19  C   LIG    1        5.056  -1.243   8.491  0.00  0.00    +0.048 C 
ENDBRANCH  17  18
ENDBRANCH  15  17
ENDBRANCH  14  15
ENDBRANCH  11  14
ENDBRANCH   9  10
ENDBRANCH   8   9
ENDBRANCH   6   8
ENDBRANCH   3   6
BRANCH   1  20
ATOM     20  O   LIG    1        1.676  -2.510  -1.383  0.00  0.00    -0.464 OA
BRANCH  20  21
ATOM     21  C   LIG    1        2.164  -1.762  -0.271  0.00  0.00    +0.232 C 
BRANCH  21  22
ATOM     22  C   LIG    1        1.617  -0.327  -0.328  0.00  0.00    +0.041 C 
BRANCH  22  23
ATOM     23  C   LIG    1        0.082  -0.247  -0.217  0.00  0.00    +0.003 C 
BRANCH  23  24
ATOM     24  C   LIG    1       -0.447   1.198  -0.242  0.00  0.00    +0.000 C 
BRANCH  24  25
ATOM     25  C   LIG    1       -1.980   1.276  -0.139  0.00  0.00    +0.000 C 
BRANCH  25  26
ATOM     26  C   LIG    1       -2.513   2.720  -0.172  0.00  0.00    +0.000 C 
BRANCH  26  27
ATOM     27  C   LIG    1       -4.047   2.794  -0.080  0.00  0.00    -0.000 C 
BRANCH  27  28
ATOM     28  C   LIG    1       -4.583   4.236  -0.127  0.00  0.00    -0.000 C 
BRANCH  28  29
ATOM     29  C   LIG    1       -6.121   4.306  -0.046  0.00  0.00    -0.000 C 
BRANCH  29  30
ATOM     30  C   LIG    1       -6.696   5.738  -0.020  0.00  0.00    -0.000 C 
BRANCH  30  31
ATOM     31  C   LIG    1       -6.371   6.618  -1.247  0.00  0.00    -0.000 C 
BRANCH  31  32
ATOM     32  C   LIG    1       -6.886   6.059  -2.588  0.00  0.00    -0.000 C 
BRANCH  32  34
ATOM     33  C   LIG    1       -7.101   6.434  -5.112  0.00  0.00    +0.004 C 
ATOM     34  C   LIG    1       -6.602   6.996  -3.774  0.00  0.00    -0.003 C 
ENDBRANCH  32  34
ENDBRANCH  31  32
ENDBRANCH  30  31
ENDBRANCH  29  30
ENDBRANCH  28  29
ENDBRANCH  27  28
ENDBRANCH  26  27
ENDBRANCH  25  26
ENDBRANCH  24  25
ENDBRANCH  23  24
ENDBRANCH  22  23
ENDBRANCH  21  22
ENDBRANCH  20  21
ENDBRANCH   1  20
TORSDOF 22
