REMARK  Name = DB12877
REMARK                            x       y       z     vdW  Elec       q    Type
REMARK                         _______ _______ _______ _____ _____    ______ ____
ROOT
ATOM      1  N   LIG    1       -2.361   0.552   1.218  0.00  0.00    -0.289 NA
ATOM      2  C   LIG    1       -1.912  -0.839   1.416  0.00  0.00    +0.100 C 
ATOM      3  C   LIG    1       -0.373  -0.936   1.292  0.00  0.00    +0.100 C 
ATOM      4  N   LIG    1        0.055  -0.517  -0.049  0.00  0.00    -0.300 NA
ATOM      5  C   LIG    1       -0.382   0.873  -0.252  0.00  0.00    +0.100 C 
ATOM      6  C   LIG    1       -1.921   0.973  -0.126  0.00  0.00    +0.100 C 
ENDROOT
BRANCH   1   7
ATOM      7  C   LIG    1       -3.824   0.714   1.415  0.00  0.00    +0.117 C 
BRANCH   7  12
ATOM      8  C   LIG    1       -4.086   4.544   1.333  0.00  0.00    +0.000 A 
ATOM      9  C   LIG    1       -5.298   4.708   0.667  0.00  0.00    +0.000 A 
ATOM     10  C   LIG    1       -6.033   3.602   0.247  0.00  0.00    +0.000 A 
ATOM     11  C   LIG    1       -5.551   2.319   0.494  0.00  0.00    +0.005 A 
ATOM     12  C   LIG    1       -4.334   2.141   1.161  0.00  0.00    -0.026 A 
ATOM     13  C   LIG    1       -3.604   3.262   1.581  0.00  0.00    +0.005 A 
ENDBRANCH   7  12
BRANCH   7  14
ATOM     14  C   LIG    1       -4.328   0.231   2.784  0.00  0.00    -0.026 A 
ATOM     15  C   LIG    1       -3.593   0.461   3.955  0.00  0.00    +0.005 A 
ATOM     16  C   LIG    1       -4.071   0.007   5.181  0.00  0.00    +0.000 A 
ATOM     17  C   LIG    1       -5.284  -0.675   5.239  0.00  0.00    +0.000 A 
ATOM     18  C   LIG    1       -6.024  -0.907   4.083  0.00  0.00    +0.000 A 
ATOM     19  C   LIG    1       -5.546  -0.455   2.856  0.00  0.00    +0.005 A 
ENDBRANCH   7  14
ENDBRANCH   1   7
BRANCH   4  20
ATOM     20  C   LIG    1        1.509  -0.638  -0.174  0.00  0.00    +0.086 C 
BRANCH  20  21
ATOM     21  C   LIG    1        1.985  -0.596  -1.645  0.00  0.00    +0.037 C 
BRANCH  21  22
ATOM     22  C   LIG    1        3.481  -0.273  -1.816  0.00  0.00    +0.128 C 
BRANCH  22  23
ATOM     23  N   LIG    1        3.846   1.080  -1.384  0.00  0.00    -0.292 N 
ATOM     24  C   LIG    1        4.475   1.434  -0.206  0.00  0.00    +0.070 A 
ATOM     25  C   LIG    1        4.944   0.686   0.875  0.00  0.00    +0.028 A 
ATOM     26  C   LIG    1        5.549   1.362   1.941  0.00  0.00    +0.002 A 
ATOM     27  C   LIG    1        5.676   2.757   1.915  0.00  0.00    +0.002 A 
ATOM     28  C   LIG    1        5.199   3.491   0.822  0.00  0.00    +0.028 A 
ATOM     29  C   LIG    1        4.600   2.796  -0.227  0.00  0.00    +0.067 A 
ATOM     30  N   LIG    1        4.043   3.216  -1.410  0.00  0.00    -0.306 N 
ATOM     31  H   LIG    1        3.986   4.180  -1.705  0.00  0.00    +0.170 HD
ATOM     32  C   LIG    1        3.572   2.180  -2.136  0.00  0.00    +0.328 A 
ATOM     33  O   LIG    1        3.018   2.239  -3.234  0.00  0.00    -0.247 OA
ENDBRANCH  22  23
ENDBRANCH  21  22
ENDBRANCH  20  21
ENDBRANCH   4  20
TORSDOF 7
