REMARK  Name = DB13609
REMARK                            x       y       z     vdW  Elec       q    Type
REMARK                         _______ _______ _______ _____ _____    ______ ____
ROOT
ATOM      1  C   LIG    1       -0.438   2.597  -0.247  0.00  0.00    +0.088 A 
ATOM      2  C   LIG    1       -0.754   1.190  -0.059  0.00  0.00    +0.019 A 
ATOM      3  C   LIG    1       -0.013  -0.024   0.046  0.00  0.00    -0.011 A 
ATOM      4  C   LIG    1       -0.740  -1.234   0.231  0.00  0.00    +0.133 A 
ATOM      5  C   LIG    1       -2.144  -1.235   0.288  0.00  0.00    +0.061 A 
ATOM      6 BR   LIG    1       -3.180  -2.836   0.508  0.00  0.00    -0.046 Br
ATOM      7  C   LIG    1       -2.875  -0.060   0.200  0.00  0.00    +0.045 A 
ATOM      8  C   LIG    1       -2.178   1.137   0.048  0.00  0.00    +0.051 A 
ATOM      9  N   LIG    1       -2.671   2.429  -0.010  0.00  0.00    -0.345 N 
ATOM     10  C   LIG    1       -4.095   2.760   0.042  0.00  0.00    +0.149 C 
ATOM     11  C   LIG    1       -1.632   3.316  -0.210  0.00  0.00    +0.044 A 
ENDROOT
BRANCH   1  12
ATOM     12  C   LIG    1        0.872   3.210  -0.451  0.00  0.00    +0.342 C 
ATOM     13  O   LIG    1        1.695   2.819  -1.278  0.00  0.00    -0.245 OA
BRANCH  12  14
ATOM     14  O   LIG    1        1.076   4.198   0.455  0.00  0.00    -0.461 OA
BRANCH  14  16
ATOM     15  C   LIG    1        3.407   4.153   1.223  0.00  0.00    +0.048 C 
ATOM     16  C   LIG    1        2.296   4.932   0.500  0.00  0.00    +0.229 C 
ENDBRANCH  14  16
ENDBRANCH  12  14
ENDBRANCH   1  12
BRANCH   4  17
ATOM     17  O   LIG    1       -0.136  -2.356   0.349  0.00  0.00    -0.505 OA
ATOM     18  H   LIG    1        0.800  -2.390   0.315  0.00  0.00    +0.292 HD
ENDBRANCH   4  17
BRANCH   3  19
ATOM     19  C   LIG    1        1.531  -0.027   0.018  0.00  0.00    -0.039 C 
BRANCH  19  20
ATOM     20  N   LIG    1        2.167  -0.061  -1.391  0.00  0.00    +0.379 N 
ATOM     21  H   LIG    1        1.811   0.747  -1.883  0.00  0.00    -0.082 HD
ATOM     22  C   LIG    1        3.698   0.098  -1.319  0.00  0.00    -0.096 C 
ATOM     23  C   LIG    1        1.781  -1.301  -2.221  0.00  0.00    -0.096 C 
ENDBRANCH  19  20
ENDBRANCH   3  19
BRANCH  11  24
ATOM     24  C   LIG    1       -1.879   4.812  -0.365  0.00  0.00    +0.128 C 
BRANCH  24  25
ATOM     25  S   LIG    1       -2.097   5.648   1.234  0.00  0.00    -0.119 S 
BRANCH  25  26
ATOM     26  C   LIG    1       -2.066   7.382   0.898  0.00  0.00    +0.008 A 
ATOM     27  C   LIG    1       -1.019   7.938   0.160  0.00  0.00    +0.015 A 
ATOM     28  C   LIG    1       -1.005   9.308  -0.090  0.00  0.00    +0.001 A 
ATOM     29  C   LIG    1       -2.032  10.111   0.403  0.00  0.00    +0.000 A 
ATOM     30  C   LIG    1       -3.073   9.558   1.147  0.00  0.00    +0.001 A 
ATOM     31  C   LIG    1       -3.088   8.189   1.398  0.00  0.00    +0.015 A 
ENDBRANCH  25  26
ENDBRANCH  24  25
ENDBRANCH  11  24
TORSDOF 9
