REMARK  Name = DB13082
REMARK                            x       y       z     vdW  Elec       q    Type
REMARK                         _______ _______ _______ _____ _____    ______ ____
ROOT
ATOM      1  N   LIG    1        1.346   0.158   0.090  0.00  0.00    -0.284 N 
ATOM      2  H   LIG    1        1.797   0.623  -0.683  0.00  0.00    +0.155 HD
ATOM      3  C   LIG    1        2.116  -0.264   1.113  0.00  0.00    +0.235 C 
ATOM      4  O   LIG    1        1.681  -0.697   2.181  0.00  0.00    -0.274 OA
ENDROOT
BRANCH   1  12
ATOM      5  C   LIG    1       -0.076  -2.470   0.200  0.00  0.00    +0.045 C 
ATOM      6  C   LIG    1       -0.771  -1.113   0.130  0.00  0.00    -0.029 A 
ATOM      7  C   LIG    1       -2.168  -1.096   0.080  0.00  0.00    +0.005 A 
ATOM      8  C   LIG    1       -2.860   0.104  -0.059  0.00  0.00    +0.001 A 
ATOM      9  C   LIG    1       -2.161   1.302  -0.164  0.00  0.00    +0.005 A 
ATOM     10  C   LIG    1       -0.764   1.316  -0.118  0.00  0.00    -0.029 A 
ATOM     11  C   LIG    1       -0.042   2.655  -0.237  0.00  0.00    +0.045 C 
ATOM     12  C   LIG    1       -0.060   0.108   0.051  0.00  0.00    +0.039 A 
ENDBRANCH   1  12
BRANCH   3  13
ATOM     13  C   LIG    1        3.633  -0.155   0.901  0.00  0.00    +0.203 C 
BRANCH  13  14
ATOM     14  N   LIG    1        4.190  -1.494   0.669  0.00  0.00    -0.293 N 
ATOM     15  C   LIG    1        4.161  -2.117  -0.535  0.00  0.00    +0.216 C 
ATOM     16  O   LIG    1        3.667  -1.719  -1.590  0.00  0.00    -0.276 OA
ATOM     17  C   LIG    1        4.883  -3.449  -0.341  0.00  0.00    +0.097 C 
ATOM     18  C   LIG    1        5.060  -3.618   1.155  0.00  0.00    +0.028 C 
ATOM     19  C   LIG    1        4.883  -2.224   1.726  0.00  0.00    +0.109 C 
ENDBRANCH  13  14
ENDBRANCH   3  13
TORSDOF 3
