REMARK  Name = DB13279
REMARK                            x       y       z     vdW  Elec       q    Type
REMARK                         _______ _______ _______ _____ _____    ______ ____
ROOT
ATOM      1  C   LIG    1        1.374   0.192  -1.143  0.00  0.00    +0.042 A 
ATOM      2  C   LIG    1        2.138   1.261  -1.844  0.00  0.00    +0.341 A 
ATOM      3  O   LIG    1        3.508   1.110  -1.927  0.00  0.00    -0.422 OA
ATOM      4  C   LIG    1        4.170   0.036  -1.359  0.00  0.00    +0.143 A 
ATOM      5  C   LIG    1        3.492  -0.986  -0.683  0.00  0.00    +0.021 A 
ATOM      6  C   LIG    1        4.240  -2.039  -0.137  0.00  0.00    +0.015 A 
ATOM      7  C   LIG    1        5.630  -2.062  -0.266  0.00  0.00    +0.046 A 
ATOM      8  C   LIG    1        6.304  -1.035  -0.947  0.00  0.00    +0.125 A 
ATOM      9  C   LIG    1        5.558   0.012  -1.490  0.00  0.00    +0.092 A 
ATOM     10  O   LIG    1        1.698   2.284  -2.367  0.00  0.00    -0.245 OA
ATOM     11  C   LIG    1        2.014  -0.875  -0.592  0.00  0.00    -0.030 A 
ATOM     12  C   LIG    1        1.292  -1.993   0.163  0.00  0.00    +0.045 C 
ENDROOT
BRANCH   1  13
ATOM     13  C   LIG    1       -0.147   0.401  -1.164  0.00  0.00    +0.058 C 
BRANCH  13  14
ATOM     14  C   LIG    1       -0.653   1.268   0.011  0.00  0.00    +0.089 C 
BRANCH  14  15
ATOM     15  N   LIG    1       -2.117   1.316   0.138  0.00  0.00    -0.303 NA
BRANCH  15  17
ATOM     16  C   LIG    1       -3.617   1.142   2.113  0.00  0.00    +0.020 C 
ATOM     17  C   LIG    1       -2.480   1.922   1.430  0.00  0.00    +0.081 C 
ENDBRANCH  15  17
BRANCH  15  18
ATOM     18  C   LIG    1       -2.726   2.017  -1.008  0.00  0.00    +0.081 C 
ATOM     19  C   LIG    1       -4.264   2.038  -1.006  0.00  0.00    +0.020 C 
ENDBRANCH  15  18
ENDBRANCH  14  15
ENDBRANCH  13  14
ENDBRANCH   1  13
BRANCH   8  20
ATOM     20  O   LIG    1        7.676  -0.973  -1.118  0.00  0.00    -0.481 OA
BRANCH  20  21
ATOM     21  C   LIG    1        8.514  -2.033  -0.647  0.00  0.00    +0.349 C 
BRANCH  21  22
ATOM     22  C   LIG    1        8.505  -3.253  -1.579  0.00  0.00    +0.345 C 
ATOM     23  O   LIG    1        7.965  -3.231  -2.688  0.00  0.00    -0.247 OA
BRANCH  22  24
ATOM     24  O   LIG    1        9.152  -4.303  -1.034  0.00  0.00    -0.463 OA
BRANCH  24  25
ATOM     25  C   LIG    1        9.261  -5.533  -1.740  0.00  0.00    +0.229 C 
ATOM     26  C   LIG    1       10.073  -6.528  -0.904  0.00  0.00    +0.048 C 
ENDBRANCH  24  25
ENDBRANCH  22  24
ENDBRANCH  21  22
ENDBRANCH  20  21
ENDBRANCH   8  20
TORSDOF 10
