REMARK  Name = DB13946
REMARK                            x       y       z     vdW  Elec       q    Type
REMARK                         _______ _______ _______ _____ _____    ______ ____
ROOT
ATOM      1  C   LIG    1        5.587  -4.768  -0.974  0.00  0.00    +0.183 C 
ATOM      2  C   LIG    1        6.923  -4.639  -1.743  0.00  0.00    +0.008 C 
ATOM      3  C   LIG    1        6.739  -3.761  -3.024  0.00  0.00    +0.015 C 
ATOM      4  C   LIG    1        8.114  -4.144  -0.887  0.00  0.00    +0.011 C 
ATOM      5  C   LIG    1        9.454  -4.314  -1.645  0.00  0.00    +0.005 C 
ATOM      6  C   LIG    1        9.695  -5.779  -2.141  0.00  0.00    +0.002 C 
ATOM      7  C   LIG    1       11.044  -5.968  -2.939  0.00  0.00    -0.007 C 
ATOM      8  C   LIG    1       11.114  -5.074  -4.208  0.00  0.00    +0.016 C 
ATOM      9  C   LIG    1       12.253  -5.622  -2.005  0.00  0.00    +0.019 C 
ATOM     10  C   LIG    1       13.613  -6.195  -2.447  0.00  0.00    +0.080 C 
ATOM     11  C   LIG    1       13.527  -7.707  -2.667  0.00  0.00    +0.156 C 
ATOM     12  O   LIG    1       14.481  -8.454  -2.463  0.00  0.00    -0.293 OA
ATOM     13  C   LIG    1       12.286  -8.190  -3.254  0.00  0.00    +0.046 C 
ATOM     14  C   LIG    1       11.160  -7.453  -3.400  0.00  0.00    -0.060 C 
ATOM     15  C   LIG    1        9.922  -8.035  -4.087  0.00  0.00    +0.032 C 
ATOM     16  C   LIG    1        8.691  -7.846  -3.192  0.00  0.00    +0.008 C 
ATOM     17  C   LIG    1        8.449  -6.356  -2.895  0.00  0.00    -0.003 C 
ATOM     18  C   LIG    1        7.171  -6.136  -2.039  0.00  0.00    +0.002 C 
ATOM     19  C   LIG    1        5.816  -6.674  -2.523  0.00  0.00    +0.008 C 
ATOM     20  C   LIG    1        4.776  -5.835  -1.751  0.00  0.00    +0.045 C 
ENDROOT
BRANCH   1  21
ATOM     21  O   LIG    1        4.920  -3.510  -0.845  0.00  0.00    -0.461 OA
BRANCH  21  22
ATOM     22  C   LIG    1        3.858  -3.343  -0.027  0.00  0.00    +0.307 C 
ATOM     23  O   LIG    1        3.333  -4.216   0.667  0.00  0.00    -0.251 OA
BRANCH  22  24
ATOM     24  C   LIG    1        3.332  -1.904  -0.070  0.00  0.00    +0.120 C 
BRANCH  24  25
ATOM     25  C   LIG    1        1.821  -1.771   0.205  0.00  0.00    +0.011 C 
BRANCH  25  26
ATOM     26  C   LIG    1        1.344  -0.311   0.120  0.00  0.00    +0.001 C 
BRANCH  26  27
ATOM     27  C   LIG    1       -0.179  -0.161   0.281  0.00  0.00    +0.000 C 
BRANCH  27  28
ATOM     28  C   LIG    1       -0.643   1.307   0.206  0.00  0.00    +0.000 C 
BRANCH  28  29
ATOM     29  C   LIG    1       -2.172   1.493   0.191  0.00  0.00    -0.000 C 
BRANCH  29  30
ATOM     30  C   LIG    1       -2.884   1.038   1.480  0.00  0.00    -0.000 C 
BRANCH  30  31
ATOM     31  C   LIG    1       -4.394   1.335   1.460  0.00  0.00    -0.000 C 
BRANCH  31  33
ATOM     32  C   LIG    1       -6.617   1.187   2.721  0.00  0.00    +0.004 C 
ATOM     33  C   LIG    1       -5.113   0.884   2.744  0.00  0.00    -0.003 C 
ENDBRANCH  31  33
ENDBRANCH  30  31
ENDBRANCH  29  30
ENDBRANCH  28  29
ENDBRANCH  27  28
ENDBRANCH  26  27
ENDBRANCH  25  26
ENDBRANCH  24  25
ENDBRANCH  22  24
ENDBRANCH  21  22
ENDBRANCH   1  21
TORSDOF 11
