REMARK  Name = DB13800
REMARK                            x       y       z     vdW  Elec       q    Type
REMARK                         _______ _______ _______ _____ _____    ______ ____
ROOT
ATOM      1  C   LIG    1        2.032  -0.141  -1.441  0.00  0.00    +0.128 C 
ENDROOT
BRANCH   1   2
ATOM      2  C   LIG    1        3.571  -0.028  -1.557  0.00  0.00    +0.305 C 
ATOM      3  O   LIG    1        4.053  -0.243  -2.692  0.00  0.00    -0.251 OA
BRANCH   2   4
ATOM      4  O   LIG    1        4.260   0.260  -0.549  0.00  0.00    -0.481 OA
ATOM      5  H   LIG    1        3.843   0.411   0.276  0.00  0.00    +0.295 HD
ENDBRANCH   2   4
ENDBRANCH   1   2
BRANCH   1   6
ATOM      6  C   LIG    1        1.470   0.167  -0.028  0.00  0.00    +0.085 C 
BRANCH   6   8
ATOM      7  C   LIG    1       -0.641  -1.358   0.159  0.00  0.00    +0.086 C 
ATOM      8  C   LIG    1       -0.054   0.043   0.024  0.00  0.00    +0.131 C 
ATOM      9  O   LIG    1       -0.779   1.033  -0.048  0.00  0.00    -0.298 OA
ENDBRANCH   6   8
ENDBRANCH   1   6
TORSDOF 4
