REMARK  Name = DB13102
REMARK                            x       y       z     vdW  Elec       q    Type
REMARK                         _______ _______ _______ _____ _____    ______ ____
ROOT
ATOM      1  N   LIG    1       -4.393   1.730   0.197  0.00  0.00    -0.290 N 
ATOM      2  C   LIG    1       -4.333   0.385   0.039  0.00  0.00    +0.249 C 
ATOM      3  O   LIG    1       -5.282  -0.400  -0.004  0.00  0.00    -0.270 OA
ATOM      4  C   LIG    1       -2.871   0.072  -0.080  0.00  0.00    +0.060 A 
ATOM      5  C   LIG    1       -2.219  -1.159  -0.234  0.00  0.00    +0.054 A 
ATOM      6 CL   LIG    1       -3.083  -2.655  -0.312  0.00  0.00    -0.083 Cl
ATOM      7  C   LIG    1       -0.825  -1.178  -0.327  0.00  0.00    +0.032 A 
ATOM      8  C   LIG    1       -0.083   0.010  -0.268  0.00  0.00    +0.022 A 
ATOM      9  C   LIG    1       -0.756   1.229  -0.115  0.00  0.00    +0.017 A 
ATOM     10  C   LIG    1       -2.148   1.250  -0.022  0.00  0.00    -0.016 A 
ATOM     11  C   LIG    1       -3.093   2.396   0.149  0.00  0.00    +0.144 C 
ENDROOT
BRANCH   8  12
ATOM     12  C   LIG    1        1.405  -0.005  -0.364  0.00  0.00    +0.168 A 
ATOM     13  O   LIG    1        2.019  -1.192  -0.599  0.00  0.00    -0.354 OA
ATOM     14  N   LIG    1        3.399  -0.990  -0.633  0.00  0.00    -0.073 NA
ATOM     15  C   LIG    1        3.607   0.303  -0.467  0.00  0.00    +0.168 A 
ATOM     16  C   LIG    1        2.387   0.958  -0.257  0.00  0.00    +0.086 A 
BRANCH  15  17
ATOM     17  C   LIG    1        4.904   0.955  -0.378  0.00  0.00    +0.268 C 
ATOM     18  N   LIG    1        5.961   0.445  -1.073  0.00  0.00    -0.302 N 
ATOM     19  C   LIG    1        7.327   0.926  -0.843  0.00  0.00    +0.132 C 
ATOM     20  C   LIG    1        5.899  -0.534  -2.165  0.00  0.00    +0.132 C 
ATOM     21  O   LIG    1        5.014   1.939   0.359  0.00  0.00    -0.268 OA
ENDBRANCH  15  17
ENDBRANCH   8  12
BRANCH   1  23
ATOM     22  C   LIG    1       -5.696   3.538   1.330  0.00  0.00    +0.028 C 
ATOM     23  C   LIG    1       -5.666   2.468   0.222  0.00  0.00    +0.077 C 
BRANCH  23  24
ATOM     24  C   LIG    1       -5.998   3.081  -1.155  0.00  0.00    +0.009 C 
ATOM     25  C   LIG    1       -6.410   2.192  -2.301  0.00  0.00    +0.005 C 
ATOM     26  C   LIG    1       -7.422   3.117  -1.645  0.00  0.00    +0.005 C 
ENDBRANCH  23  24
ENDBRANCH   1  23
TORSDOF 4
