REMARK  Name = DB13118
REMARK                            x       y       z     vdW  Elec       q    Type
REMARK                         _______ _______ _______ _____ _____    ______ ____
ROOT
ATOM      1  C   LIG    1       -3.076  -2.077  -0.048  0.00  0.00    -0.035 A 
ATOM      2  C   LIG    1       -2.234  -0.931   0.069  0.00  0.00    +0.049 A 
ATOM      3  C   LIG    1       -0.746  -1.026   0.387  0.00  0.00    +0.205 A 
ATOM      4  O   LIG    1       -0.210  -2.075   0.751  0.00  0.00    -0.286 OA
ATOM      5  C   LIG    1        0.022   0.221   0.118  0.00  0.00    +0.144 A 
ATOM      6  C   LIG    1       -0.653   1.402  -0.057  0.00  0.00    +0.209 A 
ATOM      7  N   LIG    1       -2.047   1.518   0.060  0.00  0.00    -0.314 N 
ATOM      8  C   LIG    1       -2.721   2.710   0.626  0.00  0.00    +0.152 C 
ATOM      9  C   LIG    1       -2.830   0.347  -0.114  0.00  0.00    +0.056 A 
ATOM     10  C   LIG    1       -4.185   0.459  -0.457  0.00  0.00    +0.026 A 
ATOM     11  C   LIG    1       -4.978  -0.668  -0.591  0.00  0.00    +0.002 A 
ATOM     12  C   LIG    1       -4.427  -1.922  -0.380  0.00  0.00    +0.004 A 
ENDROOT
BRANCH   5  13
ATOM     13  C   LIG    1        1.479   0.098  -0.028  0.00  0.00    +0.260 C 
ATOM     14  N   LIG    1        2.009   0.109  -1.292  0.00  0.00    -0.267 N 
ATOM     15  O   LIG    1        2.178   0.004   0.985  0.00  0.00    -0.269 OA
BRANCH  14  16
ATOM     16  C   LIG    1        1.221  -0.052  -2.451  0.00  0.00    +0.037 A 
ATOM     17  C   LIG    1        0.635  -1.289  -2.747  0.00  0.00    +0.023 A 
ATOM     18  C   LIG    1       -0.142  -1.430  -3.893  0.00  0.00    +0.002 A 
ATOM     19  C   LIG    1       -0.319  -0.341  -4.744  0.00  0.00    +0.000 A 
ATOM     20  C   LIG    1        0.277   0.887  -4.465  0.00  0.00    +0.002 A 
ATOM     21  C   LIG    1        1.055   1.032  -3.318  0.00  0.00    +0.023 A 
ENDBRANCH  14  16
BRANCH  14  22
ATOM     22  C   LIG    1        3.467   0.006  -1.477  0.00  0.00    +0.110 C 
ATOM     23  C   LIG    1        3.964  -1.427  -1.732  0.00  0.00    +0.025 C 
ENDBRANCH  14  22
ENDBRANCH   5  13
BRANCH   1  25
ATOM     24  C   LIG    1       -1.903  -4.098  -1.099  0.00  0.00    +0.009 C 
ATOM     25  C   LIG    1       -2.613  -3.528   0.140  0.00  0.00    +0.032 C 
ENDBRANCH   1  25
BRANCH   6  26
ATOM     26  O   LIG    1       -0.111   2.539  -0.377  0.00  0.00    -0.493 OA
ATOM     27  H   LIG    1        0.818   2.601  -0.487  0.00  0.00    +0.294 HD
ENDBRANCH   6  26
TORSDOF 5
