REMARK  Name = DB13277
REMARK                            x       y       z     vdW  Elec       q    Type
REMARK                         _______ _______ _______ _____ _____    ______ ____
ROOT
ATOM      1  C   LIG    1        1.477  -0.206  -0.014  0.00  0.00    +0.197 C 
ATOM      2  O   LIG    1        2.109   0.469  -0.829  0.00  0.00    -0.287 OA
ENDROOT
BRANCH   1  11
ATOM      3  C   LIG    1       -0.715   1.114  -0.040  0.00  0.00    +0.117 A 
ATOM      4  O   LIG    1       -2.057   0.873   0.029  0.00  0.00    -0.459 OA
ATOM      5  C   LIG    1       -2.208  -0.478   0.109  0.00  0.00    +0.136 A 
ATOM      6  C   LIG    1       -0.955  -1.132   0.100  0.00  0.00    +0.031 A 
ATOM      7  C   LIG    1       -0.939  -2.539   0.150  0.00  0.00    +0.012 A 
ATOM      8  C   LIG    1       -2.152  -3.228   0.225  0.00  0.00    +0.001 A 
ATOM      9  C   LIG    1       -3.373  -2.551   0.243  0.00  0.00    +0.004 A 
ATOM     10  C   LIG    1       -3.428  -1.159   0.183  0.00  0.00    +0.047 A 
ATOM     11  C   LIG    1        0.019  -0.074   0.025  0.00  0.00    +0.071 A 
BRANCH   3  13
ATOM     12  C   LIG    1       -0.593   3.325   1.186  0.00  0.00    +0.012 C 
ATOM     13  C   LIG    1       -0.334   2.579  -0.130  0.00  0.00    +0.072 C 
ENDBRANCH   3  13
ENDBRANCH   1  11
BRANCH   1  14
ATOM     14  C   LIG    1        2.177  -1.140   0.932  0.00  0.00    +0.025 A 
ATOM     15  C   LIG    1        1.554  -1.637   2.087  0.00  0.00    +0.029 A 
ATOM     16  C   LIG    1        2.235  -2.480   2.965  0.00  0.00    +0.056 A 
ATOM     17  I   LIG    1        1.224  -3.192   4.658  0.00  0.00    -0.040 I 
ATOM     18  C   LIG    1        3.564  -2.830   2.709  0.00  0.00    +0.143 A 
ATOM     19  C   LIG    1        4.206  -2.325   1.575  0.00  0.00    +0.056 A 
ATOM     20  I   LIG    1        6.203  -2.801   1.148  0.00  0.00    -0.040 I 
ATOM     21  C   LIG    1        3.517  -1.483   0.701  0.00  0.00    +0.029 A 
BRANCH  18  22
ATOM     22  O   LIG    1        4.235  -3.660   3.572  0.00  0.00    -0.505 OA
ATOM     23  H   LIG    1        3.706  -3.907   4.333  0.00  0.00    +0.292 HD
ENDBRANCH  18  22
ENDBRANCH   1  14
TORSDOF 4
