REMARK  Name = DB13156
REMARK                            x       y       z     vdW  Elec       q    Type
REMARK                         _______ _______ _______ _____ _____    ______ ____
ROOT
ATOM      1  C1*   I A  1       -2.211   0.778  -0.797  0.00  0.00    +0.253 C 
ATOM      2  C2*   I A  1       -1.448   0.101  -1.933  0.00  0.00    +0.195 C 
ATOM      3  C3*   I A  1       -0.690  -0.945  -1.116  0.00  0.00    +0.178 C 
ATOM      4  C4*   I A  1       -0.335  -0.199   0.185  0.00  0.00    +0.177 C 
ATOM      5  O4*   I A  1       -1.296   0.854   0.252  0.00  0.00    -0.346 OA
ENDROOT
BRANCH   1   6
ATOM      6  N9    I A  1       -2.741   2.101  -1.064  0.00  0.00    -0.285 N 
ATOM      7  C8    I A  1       -2.296   3.068  -1.949  0.00  0.00    +0.203 A 
ATOM      8  N7    I A  1       -2.988   4.188  -1.946  0.00  0.00    -0.229 NA
ATOM      9  C5    I A  1       -3.919   3.987  -1.034  0.00  0.00    +0.172 A 
ATOM     10  C6    I A  1       -4.981   4.890  -0.586  0.00  0.00    +0.279 A 
ATOM     11  O6    I A  1       -5.232   6.029  -0.973  0.00  0.00    -0.265 OA
ATOM     12  N1    I A  1       -5.729   4.276   0.395  0.00  0.00    -0.312 N 
ATOM     13  H1    I A  1       -6.486   4.835   0.760  0.00  0.00    +0.170 HD
ATOM     14  C2    I A  1       -5.559   3.006   0.924  0.00  0.00    +0.201 A 
ATOM     15  N3    I A  1       -4.617   2.219   0.519  0.00  0.00    -0.218 NA
ATOM     16  C4    I A  1       -3.809   2.724  -0.460  0.00  0.00    +0.169 A 
ENDBRANCH   1   6
BRANCH   2  17
ATOM     17  O2*   I A  1       -2.338  -0.377  -2.926  0.00  0.00    -0.385 OA
ATOM     18  H2*   I A  1       -1.823  -0.751  -3.645  0.00  0.00    +0.210 HD
ENDBRANCH   2  17
BRANCH   3  19
ATOM     19  O3*   I A  1       -1.431  -2.129  -0.862  0.00  0.00    -0.386 OA
ATOM     20  H3*   I A  1       -2.228  -1.893  -0.381  0.00  0.00    +0.210 HD
ENDBRANCH   3  19
BRANCH   4  21
ATOM     21  C5*   I A  1        1.052   0.472   0.198  0.00  0.00    +0.190 C 
BRANCH  21  22
ATOM     22  O5*   I A  1        2.071  -0.491   0.366  0.00  0.00    -0.392 OA
ATOM     23  H5*   I A  1        2.918  -0.039   0.401  0.00  0.00    +0.210 HD
ENDBRANCH  21  22
ENDBRANCH   4  21
TORSDOF 5
