REMARK  Name = DB13125
REMARK                            x       y       z     vdW  Elec       q    Type
REMARK                         _______ _______ _______ _____ _____    ______ ____
ROOT
ATOM      1  C   LIG    1        4.132  -1.713   2.044  0.00  0.00    +0.084 A 
ATOM      2  N   LIG    1        3.590  -2.097   3.188  0.00  0.00    -0.224 NA
ATOM      3  C   LIG    1        4.355  -2.921   3.868  0.00  0.00    +0.165 A 
ATOM      4  S   LIG    1        5.880  -3.270   3.132  0.00  0.00    -0.060 S 
ATOM      5  C   LIG    1        5.409  -2.236   1.817  0.00  0.00    +0.077 A 
ENDROOT
BRANCH   1   8
ATOM      6  C   LIG    1        1.361   0.102   0.103  0.00  0.00    +0.023 A 
ATOM      7  C   LIG    1        2.000  -0.861   0.906  0.00  0.00    +0.135 A 
ATOM      8  C   LIG    1        3.391  -0.782   1.134  0.00  0.00    +0.043 A 
ATOM      9  C   LIG    1        4.128   0.228   0.503  0.00  0.00    +0.014 A 
ATOM     10  C   LIG    1        3.501   1.160  -0.318  0.00  0.00    +0.001 A 
ATOM     11  C   LIG    1        2.125   1.101  -0.511  0.00  0.00    +0.010 A 
BRANCH   6  12
ATOM     12  C   LIG    1       -0.159   0.064  -0.115  0.00  0.00    +0.149 C 
ATOM     13  C   LIG    1       -0.539  -0.736  -1.369  0.00  0.00    +0.043 C 
BRANCH  12  14
ATOM     14  O   LIG    1       -0.701   1.376  -0.275  0.00  0.00    -0.372 OA
BRANCH  14  15
ATOM     15  C   LIG    1       -0.749   2.171   0.907  0.00  0.00    +0.160 C 
BRANCH  15  16
ATOM     16  C   LIG    1       -1.285   3.569   0.560  0.00  0.00    +0.028 C 
BRANCH  16  17
ATOM     17  C   LIG    1       -0.395   4.338  -0.435  0.00  0.00    +0.002 C 
BRANCH  17  18
ATOM     18  C   LIG    1       -0.934   5.746  -0.756  0.00  0.00    -0.000 C 
BRANCH  18  19
ATOM     19  C   LIG    1       -0.042   6.564  -1.710  0.00  0.00    -0.003 C 
ATOM     20  C   LIG    1        0.046   5.997  -3.135  0.00  0.00    +0.004 C 
ENDBRANCH  18  19
ENDBRANCH  17  18
ENDBRANCH  16  17
ENDBRANCH  15  16
ENDBRANCH  14  15
ENDBRANCH  12  14
ENDBRANCH   6  12
BRANCH   7  21
ATOM     21  O   LIG    1        1.236  -1.852   1.482  0.00  0.00    -0.494 OA
ATOM     22  C   LIG    1        1.389  -3.146   0.908  0.00  0.00    +0.277 C 
ENDBRANCH   7  21
ENDBRANCH   1   8
BRANCH   3  23
ATOM     23  N   LIG    1        4.080  -3.522   5.088  0.00  0.00    -0.261 N 
ATOM     24  H   LIG    1        4.830  -4.061   5.493  0.00  0.00    +0.157 HD
ATOM     25  C   LIG    1        2.901  -3.492   5.755  0.00  0.00    +0.250 C 
ATOM     26  O   LIG    1        1.895  -2.900   5.359  0.00  0.00    -0.270 OA
BRANCH  25  27
ATOM     27  C   LIG    1        2.875  -4.228   7.077  0.00  0.00    +0.040 A 
ATOM     28  C   LIG    1        1.902  -3.910   8.034  0.00  0.00    +0.033 A 
ATOM     29  C   LIG    1        1.852  -4.573   9.260  0.00  0.00    +0.050 A 
ATOM     30 CL   LIG    1        0.623  -4.116  10.392  0.00  0.00    -0.083 Cl
ATOM     31  C   LIG    1        2.783  -5.581   9.557  0.00  0.00    +0.012 A 
ATOM     32  C   LIG    1        3.756  -5.913   8.601  0.00  0.00    +0.050 A 
ATOM     33 CL   LIG    1        4.929  -7.151   8.900  0.00  0.00    -0.083 Cl
ATOM     34  C   LIG    1        3.797  -5.243   7.378  0.00  0.00    +0.033 A 
BRANCH  31  35
ATOM     35  C   LIG    1        2.735  -6.284  10.853  0.00  0.00    +0.021 C 
ATOM     36  C   LIG    1        3.381  -5.895  11.982  0.00  0.00    +0.034 C 
ATOM     37  C   LIG    1        4.265  -4.648  12.065  0.00  0.00    +0.051 C 
BRANCH  36  38
ATOM     38  C   LIG    1        3.283  -6.643  13.232  0.00  0.00    +0.333 C 
ATOM     39  O   LIG    1        3.844  -6.312  14.277  0.00  0.00    -0.245 OA
BRANCH  38  40
ATOM     40  O   LIG    1        2.504  -7.765  13.156  0.00  0.00    -0.477 OA
ATOM     41  H   LIG    1        2.459  -8.232  13.993  0.00  0.00    +0.295 HD
ENDBRANCH  38  40
ENDBRANCH  36  38
ENDBRANCH  31  35
ENDBRANCH  25  27
ENDBRANCH   3  23
TORSDOF 14
