REMARK  Name = DB13034
REMARK                            x       y       z     vdW  Elec       q    Type
REMARK                         _______ _______ _______ _____ _____    ______ ____
ROOT
ATOM      1  CA  MET A  1        0.338  -0.420  -0.724  0.00  0.00    +0.168 C 
ENDROOT
BRANCH   1   4
ATOM      2  N   MET A  1       -0.538   1.708  -1.546  0.00  0.00    -0.302 N 
ATOM      3  H   MET A  1       -0.501   1.272  -2.455  0.00  0.00    +0.150 HD
ATOM      4  C   MET A  1       -0.147   1.017  -0.464  0.00  0.00    +0.235 C 
ATOM      5  O   MET A  1       -0.151   1.458   0.687  0.00  0.00    -0.274 OA
BRANCH   2   6
ATOM      6  CA  MET A  1       -1.017   3.090  -1.522  0.00  0.00    +0.159 C 
BRANCH   6   9
ATOM      7  N   MET A  1       -2.760   4.402  -0.439  0.00  0.00    -0.301 N 
ATOM      8  H   MET A  1       -2.080   5.148  -0.471  0.00  0.00    +0.150 HD
ATOM      9  C   MET A  1       -2.446   3.208  -0.969  0.00  0.00    +0.234 C 
ATOM     10  O   MET A  1       -3.222   2.256  -1.055  0.00  0.00    -0.274 OA
BRANCH   7  11
ATOM     11  CA  MET A  1       -4.056   4.763   0.157  0.00  0.00    +0.182 C 
BRANCH  11  12
ATOM     12  C   MET A  1       -4.284   6.311  -0.036  0.00  0.00    +0.325 C 
ATOM     13  O   MET A  1       -5.410   6.614  -0.493  0.00  0.00    -0.249 OA
BRANCH  12  14
ATOM     14  OXT MET A  1       -3.350   7.074   0.318  0.00  0.00    -0.479 OA
ATOM     15  HXT MET A  1       -2.550   6.714   0.647  0.00  0.00    +0.295 HD
ENDBRANCH  12  14
ENDBRANCH  11  12
BRANCH  11  16
ATOM     16  CB  MET A  1       -4.070   4.464   1.690  0.00  0.00    +0.036 C 
BRANCH  16  18
ATOM     17  CD1 MET A  1       -5.430   2.286   1.585  0.00  0.00    +0.007 C 
ATOM     18  CG  MET A  1       -4.143   2.973   2.095  0.00  0.00    -0.015 C 
ATOM     19  CD2 MET A  1       -3.952   2.808   3.619  0.00  0.00    +0.007 C 
ENDBRANCH  16  18
ENDBRANCH  11  16
ENDBRANCH   7  11
ENDBRANCH   6   9
BRANCH   6  20
ATOM     20  CB  MET A  1       -0.926   3.692  -2.939  0.00  0.00    +0.043 C 
BRANCH  20  21
ATOM     21  CG  MET A  1        0.519   3.777  -3.485  0.00  0.00    +0.123 C 
BRANCH  21  22
ATOM     22  CD  MET A  1        0.665   4.375  -4.895  0.00  0.00    +0.305 C 
ATOM     23  OE1 MET A  1        1.827   4.433  -5.355  0.00  0.00    -0.251 OA
BRANCH  22  24
ATOM     24  OE2 MET A  1       -0.357   4.767  -5.504  0.00  0.00    -0.481 OA
ATOM     25  HE2 MET A  1       -1.200   4.695  -5.100  0.00  0.00    +0.295 HD
ENDBRANCH  22  24
ENDBRANCH  21  22
ENDBRANCH  20  21
ENDBRANCH   6  20
ENDBRANCH   2   6
ENDBRANCH   1   4
BRANCH   1  26
ATOM     26  N   MET A  1        1.716  -0.579  -0.255  0.00  0.00    -0.302 N 
ATOM     27  H   MET A  1        1.829  -1.095   0.606  0.00  0.00    +0.150 HD
ATOM     28  C   MET A  1        2.787   0.010  -0.813  0.00  0.00    +0.231 C 
ATOM     29  O   MET A  1        2.741   0.646  -1.867  0.00  0.00    -0.274 OA
BRANCH  28  30
ATOM     30  CA  MET A  1        4.117  -0.144  -0.067  0.00  0.00    +0.200 C 
BRANCH  30  31
ATOM     31  N   MET A  1        4.617   1.192   0.250  0.00  0.00    -0.305 N 
ATOM     32  H   MET A  1        5.305   1.583  -0.378  0.00  0.00    +0.149 HD
ATOM     33  C   MET A  1        4.124   1.956   1.240  0.00  0.00    +0.234 C 
ATOM     34  O   MET A  1        3.285   1.576   2.058  0.00  0.00    -0.274 OA
BRANCH  33  35
ATOM     35  CA  MET A  1        4.666   3.392   1.323  0.00  0.00    +0.169 C 
BRANCH  35  36
ATOM     36  N   MET A  1        3.565   4.355   1.443  0.00  0.00    -0.302 N 
ATOM     37  H   MET A  1        3.472   4.798   2.345  0.00  0.00    +0.150 HD
ATOM     38  C   MET A  1        2.681   4.653   0.472  0.00  0.00    +0.234 C 
ATOM     39  O   MET A  1        2.735   4.177  -0.664  0.00  0.00    -0.274 OA
BRANCH  38  40
ATOM     40  CA  MET A  1        1.572   5.661   0.862  0.00  0.00    +0.159 C 
BRANCH  40  41
ATOM     41  N   MET A  1        0.696   5.968  -0.279  0.00  0.00    -0.307 N 
ATOM     42  H   MET A  1        0.429   5.172  -0.840  0.00  0.00    +0.149 HD
ATOM     43  C   UNK A  0        0.271   7.188  -0.643  0.00  0.00    +0.326 C 
ATOM     44  O   UNK A  0        0.538   8.234  -0.052  0.00  0.00    -0.280 OA
ENDBRANCH  40  41
BRANCH  40  45
ATOM     45  CB  MET A  1        0.738   5.163   2.076  0.00  0.00    +0.042 C 
BRANCH  45  46
ATOM     46  CG  MET A  1       -0.346   6.134   2.570  0.00  0.00    +0.071 C 
BRANCH  46  47
ATOM     47  SD  MET A  1       -1.136   5.625   4.119  0.00  0.00    -0.164 S 
ATOM     48  CE  MET A  1       -2.356   6.955   4.281  0.00  0.00    +0.084 C 
ENDBRANCH  46  47
ENDBRANCH  45  46
ENDBRANCH  40  45
ENDBRANCH  38  40
ENDBRANCH  35  36
BRANCH  35  49
ATOM     49  CB  MET A  1        5.695   3.498   2.481  0.00  0.00    +0.152 C 
BRANCH  49  50
ATOM     50  CG  MET A  1        6.293   4.893   2.758  0.00  0.00    +0.307 C 
ATOM     51  OD1 MET A  1        6.879   5.034   3.854  0.00  0.00    -0.251 OA
BRANCH  50  52
ATOM     52  OD2 MET A  1        6.288   5.749   1.845  0.00  0.00    -0.481 OA
ATOM     53  HD2 MET A  1        5.828   5.580   1.046  0.00  0.00    +0.295 HD
ENDBRANCH  50  52
ENDBRANCH  49  50
ENDBRANCH  35  49
ENDBRANCH  33  35
ENDBRANCH  30  31
ENDBRANCH  28  30
ENDBRANCH   1  26
BRANCH   1  54
ATOM     54  CB  MET A  1       -0.614  -1.424  -0.046  0.00  0.00    +0.097 C 
BRANCH  54  55
ATOM     55  SG  MET A  1       -0.235  -3.113  -0.592  0.00  0.00    -0.176 S 
ATOM     56  HG  MET A  1       -1.174  -3.711   0.147  0.00  0.00    +0.102 HD
ENDBRANCH  54  55
ENDBRANCH   1  54
TORSDOF 27
