REMARK  Name = DB13016
REMARK                            x       y       z     vdW  Elec       q    Type
REMARK                         _______ _______ _______ _____ _____    ______ ____
ROOT
ATOM      1  C   LIG    1        3.457  -1.241  -0.004  0.00  0.00    -0.010 A 
ATOM      2  C   LIG    1        4.287  -2.008  -0.824  0.00  0.00    +0.007 A 
ATOM      3  C   LIG    1        5.659  -1.772  -0.844  0.00  0.00    +0.007 A 
ATOM      4  C   LIG    1        6.211  -0.767  -0.043  0.00  0.00    -0.015 A 
ATOM      5  C   LIG    1        5.380  -0.015   0.794  0.00  0.00    +0.007 A 
ATOM      6  C   LIG    1        4.009  -0.250   0.813  0.00  0.00    +0.007 A 
ENDROOT
BRANCH   1   7
ATOM      7  C   LIG    1        1.956  -1.493   0.008  0.00  0.00    +0.264 C 
BRANCH   7   8
ATOM      8  O   LIG    1        1.263  -0.247   0.024  0.00  0.00    -0.487 OA
BRANCH   8  14
ATOM      9  C   LIG    1       -0.747   1.037   0.077  0.00  0.00    +0.036 A 
ATOM     10  C   LIG    1       -2.153   1.127   0.086  0.00  0.00    +0.134 A 
ATOM     11  C   LIG    1       -2.946  -0.043   0.088  0.00  0.00    +0.059 A 
ATOM     12  C   LIG    1       -2.299  -1.285   0.088  0.00  0.00    +0.018 A 
ATOM     13  C   LIG    1       -0.912  -1.374   0.066  0.00  0.00    +0.047 A 
ATOM     14  C   LIG    1       -0.120  -0.219   0.057  0.00  0.00    +0.128 A 
BRANCH  11  15
ATOM     15  C   LIG    1       -4.450  -0.006   0.139  0.00  0.00    +0.164 C 
ATOM     16  C   LIG    1       -5.209  -1.205  -0.435  0.00  0.00    +0.092 C 
ATOM     17  O   LIG    1       -5.110   0.965   0.509  0.00  0.00    -0.292 OA
ENDBRANCH  11  15
BRANCH  10  18
ATOM     18  O   LIG    1       -2.734   2.374   0.069  0.00  0.00    -0.506 OA
ATOM     19  H   LIG    1       -2.088   3.084   0.058  0.00  0.00    +0.292 HD
ENDBRANCH  10  18
BRANCH   9  20
ATOM     20  C   LIG    1        0.115   2.307   0.076  0.00  0.00    +0.042 C 
BRANCH  20  22
ATOM     21  C   LIG    1        1.327   4.049  -1.357  0.00  0.00    +0.004 C 
ATOM     22  C   LIG    1        0.455   2.787  -1.346  0.00  0.00    +0.001 C 
ENDBRANCH  20  22
ENDBRANCH   9  20
ENDBRANCH   8  14
ENDBRANCH   7   8
ENDBRANCH   1   7
BRANCH   4  23
ATOM     23  C   LIG    1        7.717  -0.507  -0.074  0.00  0.00    +0.175 C 
BRANCH  23  24
ATOM     24  C   LIG    1        8.055   0.813  -0.770  0.00  0.00    -0.014 A 
ATOM     25  C   LIG    1        8.073   2.023  -0.063  0.00  0.00    +0.021 A 
ATOM     26  C   LIG    1        8.384   3.247  -0.690  0.00  0.00    +0.059 A 
ATOM     27  C   LIG    1        8.690   3.208  -2.065  0.00  0.00    +0.015 A 
ATOM     28  C   LIG    1        8.687   2.009  -2.775  0.00  0.00    +0.001 A 
ATOM     29  C   LIG    1        8.374   0.817  -2.130  0.00  0.00    +0.006 A 
BRANCH  26  30
ATOM     30  C   LIG    1        8.386   4.551   0.083  0.00  0.00    +0.337 C 
ATOM     31  O   LIG    1        8.103   4.531   1.304  0.00  0.00    -0.245 OA
BRANCH  30  32
ATOM     32  O   LIG    1        8.672   5.612  -0.523  0.00  0.00    -0.477 OA
ATOM     33  H   LIG    1        8.879   5.589  -1.437  0.00  0.00    +0.295 HD
ENDBRANCH  30  32
ENDBRANCH  26  30
ENDBRANCH  23  24
BRANCH  23  34
ATOM     34  O   LIG    1        8.306  -0.624   1.209  0.00  0.00    -0.383 OA
ATOM     35  H   LIG    1        8.226  -1.536   1.498  0.00  0.00    +0.211 HD
ENDBRANCH  23  34
ENDBRANCH   4  23
TORSDOF 12
