REMARK  Name = DB13278
REMARK                            x       y       z     vdW  Elec       q    Type
REMARK                         _______ _______ _______ _____ _____    ______ ____
ROOT
ATOM      1  C   LIG    1        6.212  -0.176   2.351  0.00  0.00    +0.121 A 
ATOM      2  C   LIG    1        5.205  -0.553   3.252  0.00  0.00    +0.047 A 
ATOM      3  C   LIG    1        3.868  -0.516   2.866  0.00  0.00    +0.027 A 
ATOM      4  C   LIG    1        3.516  -0.092   1.583  0.00  0.00    +0.034 A 
ATOM      5  C   LIG    1        4.522   0.268   0.674  0.00  0.00    +0.027 A 
ATOM      6  C   LIG    1        5.858   0.227   1.064  0.00  0.00    +0.047 A 
ENDROOT
BRANCH   4   7
ATOM      7  N   LIG    1        2.142  -0.090   1.282  0.00  0.00    -0.285 N 
ATOM      8  H   LIG    1        1.572  -0.631   1.916  0.00  0.00    +0.155 HD
ATOM      9  C   LIG    1        1.486   0.605   0.327  0.00  0.00    +0.220 C 
ATOM     10  O   LIG    1        2.014   1.394  -0.458  0.00  0.00    -0.275 OA
BRANCH   9  11
ATOM     11  C   LIG    1       -0.034   0.367   0.267  0.00  0.00    +0.127 C 
BRANCH  11  12
ATOM     12  C   LIG    1       -0.875   1.579  -0.211  0.00  0.00    +0.120 C 
ATOM     13  C   LIG    1       -2.367   1.234  -0.342  0.00  0.00    +0.038 C 
BRANCH  12  14
ATOM     14  O   LIG    1       -0.752   2.661   0.694  0.00  0.00    -0.392 OA
ATOM     15  H   LIG    1        0.175   2.907   0.747  0.00  0.00    +0.210 HD
ENDBRANCH  12  14
ENDBRANCH  11  12
ENDBRANCH   9  11
ENDBRANCH   4   7
BRANCH   1  16
ATOM     16  O   LIG    1        7.562  -0.175   2.647  0.00  0.00    -0.492 OA
BRANCH  16  18
ATOM     17  C   LIG    1        9.516  -0.404   4.027  0.00  0.00    +0.048 C 
ATOM     18  C   LIG    1        7.993  -0.547   3.952  0.00  0.00    +0.225 C 
ENDBRANCH  16  18
ENDBRANCH   1  16
TORSDOF 6
