REMARK  Name = DB13022
REMARK                            x       y       z     vdW  Elec       q    Type
REMARK                         _______ _______ _______ _____ _____    ______ ____
ROOT
ATOM      1  C   LIG    1       -1.670  -3.182  -0.113  0.00  0.00    +0.122 A 
ATOM      2  C   LIG    1       -0.624  -2.254   0.014  0.00  0.00    +0.057 A 
ATOM      3  C   LIG    1       -0.925  -0.906   0.257  0.00  0.00    +0.030 A 
ATOM      4  C   LIG    1       -0.162   0.293   0.452  0.00  0.00    +0.093 A 
ATOM      5  N   LIG    1       -0.978   1.303   0.651  0.00  0.00    -0.173 NA
ATOM      6  N   LIG    1       -2.240   0.844   0.595  0.00  0.00    -0.276 N 
ATOM      7  H   LIG    1       -3.019   1.473   0.723  0.00  0.00    +0.189 HD
ATOM      8  C   LIG    1       -2.279  -0.512   0.355  0.00  0.00    +0.067 A 
ATOM      9  C   LIG    1       -3.335  -1.415   0.216  0.00  0.00    +0.031 A 
ATOM     10  C   LIG    1       -2.993  -2.748  -0.019  0.00  0.00    +0.048 A 
ENDROOT
BRANCH   4  11
ATOM     11  C   LIG    1        1.287   0.405   0.439  0.00  0.00    +0.031 C 
ATOM     12  C   LIG    1        2.027   1.502   0.689  0.00  0.00    +0.013 C 
BRANCH  12  13
ATOM     13  C   LIG    1        3.473   1.587   0.665  0.00  0.00    +0.012 A 
ATOM     14  C   LIG    1        4.404   0.624   0.299  0.00  0.00    +0.116 A 
ATOM     15  N   LIG    1        5.643   1.192   0.442  0.00  0.00    -0.269 N 
ATOM     16  N   LIG    1        5.570   2.462   0.860  0.00  0.00    -0.179 NA
ATOM     17  C   LIG    1        4.282   2.687   0.996  0.00  0.00    +0.142 A 
BRANCH  15  18
ATOM     18  C   LIG    1        6.941   0.593   0.143  0.00  0.00    +0.171 C 
BRANCH  18  19
ATOM     19  C   LIG    1        7.538   1.222  -1.131  0.00  0.00    +0.179 C 
BRANCH  19  20
ATOM     20  O   LIG    1        8.778   0.626  -1.446  0.00  0.00    -0.393 OA
ATOM     21  H   LIG    1        8.620  -0.275  -1.739  0.00  0.00    +0.209 HD
ENDBRANCH  19  20
ENDBRANCH  18  19
ENDBRANCH  15  18
ENDBRANCH  12  13
ENDBRANCH   4  11
BRANCH   1  22
ATOM     22  O   LIG    1       -1.484  -4.536  -0.336  0.00  0.00    -0.484 OA
BRANCH  22  24
ATOM     23  C   LIG    1       -0.276  -6.572  -0.772  0.00  0.00    +0.057 C 
ATOM     24  C   LIG    1       -0.180  -5.125  -0.262  0.00  0.00    +0.203 C 
BRANCH  24  25
ATOM     25  C   LIG    1        0.416  -5.050   1.161  0.00  0.00    +0.032 A 
ATOM     26  C   LIG    1       -0.344  -5.397   2.299  0.00  0.00    +0.067 A 
ATOM     27 CL   LIG    1       -1.981  -5.955   2.209  0.00  0.00    -0.082 Cl
ATOM     28  C   LIG    1        0.244  -5.294   3.561  0.00  0.00    +0.131 A 
ATOM     29  N   LIG    1        1.518  -4.882   3.757  0.00  0.00    -0.260 NA
ATOM     30  C   LIG    1        2.248  -4.563   2.663  0.00  0.00    +0.131 A 
ATOM     31  C   LIG    1        1.750  -4.634   1.361  0.00  0.00    +0.067 A 
ATOM     32 CL   LIG    1        2.807  -4.205   0.058  0.00  0.00    -0.082 Cl
ENDBRANCH  24  25
ENDBRANCH  22  24
ENDBRANCH   1  22
TORSDOF 8
