REMARK  Name = DB13066
REMARK                            x       y       z     vdW  Elec       q    Type
REMARK                         _______ _______ _______ _____ _____    ______ ____
ROOT
ATOM      1  C   LIG    1        1.437  -0.202   0.109  0.00  0.00    +0.119 C 
ENDROOT
BRANCH   1   2
ATOM      2  C   LIG    1        1.986  -1.425  -0.646  0.00  0.00    -0.024 A 
ATOM      3  C   LIG    1        2.216  -2.641   0.020  0.00  0.00    +0.033 A 
ATOM      4  C   LIG    1        2.732  -3.695  -0.737  0.00  0.00    +0.066 A 
ATOM      5  N   LIG    1        3.071  -4.997  -0.445  0.00  0.00    -0.344 N 
ATOM      6  H   LIG    1        3.013  -5.492   0.433  0.00  0.00    +0.167 HD
ATOM      7  C   LIG    1        3.531  -5.559  -1.611  0.00  0.00    +0.197 A 
ATOM      8  N   LIG    1        3.521  -4.740  -2.632  0.00  0.00    -0.236 NA
ATOM      9  C   LIG    1        3.026  -3.569  -2.119  0.00  0.00    +0.089 A 
ATOM     10  C   LIG    1        2.795  -2.348  -2.764  0.00  0.00    +0.030 A 
ATOM     11  C   LIG    1        2.278  -1.293  -2.011  0.00  0.00    +0.008 A 
ENDBRANCH   1   2
BRANCH   1  17
ATOM     12  C   LIG    1       -2.032   1.392  -0.193  0.00  0.00    +0.002 A 
ATOM     13  C   LIG    1       -2.870   0.282  -0.091  0.00  0.00    +0.020 A 
ATOM     14  C   LIG    1       -2.325  -0.990   0.074  0.00  0.00    +0.041 A 
ATOM     15 CL   LIG    1       -3.361  -2.365   0.200  0.00  0.00    -0.084 Cl
ATOM     16  C   LIG    1       -0.940  -1.153   0.138  0.00  0.00    +0.025 A 
ATOM     17  C   LIG    1       -0.088  -0.043   0.046  0.00  0.00    -0.024 A 
ATOM     18  C   LIG    1       -0.648   1.229  -0.127  0.00  0.00    +0.005 A 
ENDBRANCH   1  17
BRANCH   1  19
ATOM     19  N   LIG    1        1.965  -0.045   1.469  0.00  0.00    -0.268 NA
ATOM     20  C   LIG    1        1.448  -0.590   2.632  0.00  0.00    +0.158 C 
ATOM     21  N   LIG    1        2.243  -0.201   3.685  0.00  0.00    -0.293 NA
ATOM     22  H   LIG    1        2.098  -0.451   4.654  0.00  0.00    +0.124 HD
ATOM     23  C   LIG    1        3.270   0.587   3.203  0.00  0.00    +0.092 C 
ATOM     24  C   LIG    1        3.097   0.681   1.826  0.00  0.00    +0.096 C 
ENDBRANCH   1  19
TORSDOF 3
