REMARK  Name = DB13009
REMARK                            x       y       z     vdW  Elec       q    Type
REMARK                         _______ _______ _______ _____ _____    ______ ____
ROOT
ATOM      1  N   LIG    1       -1.682   1.601   0.001  0.00  0.00    -0.326 N 
ATOM      2  H   LIG    1       -2.369   0.860   0.001  0.00  0.00    +0.169 HD
ATOM      3  C   LIG    1       -1.988   2.958   0.001  0.00  0.00    +0.065 A 
ATOM      4  C   LIG    1       -3.199   3.652   0.001  0.00  0.00    +0.028 A 
ATOM      5  C   LIG    1       -3.186   5.049   0.001  0.00  0.00    +0.002 A 
ATOM      6  C   LIG    1       -1.971   5.742   0.001  0.00  0.00    +0.002 A 
ATOM      7  C   LIG    1       -0.762   5.043   0.000  0.00  0.00    +0.028 A 
ATOM      8  C   LIG    1       -0.781   3.648   0.000  0.00  0.00    +0.065 A 
ATOM      9  N   LIG    1        0.231   2.694   0.000  0.00  0.00    -0.326 N 
ATOM     10  H   LIG    1        1.219   2.906  -0.000  0.00  0.00    +0.169 HD
ATOM     11  C   LIG    1       -0.286   1.367   0.000  0.00  0.00    +0.201 A 
ATOM     12  N   LIG    1        0.282   0.219   0.000  0.00  0.00    -0.109 NA
ENDROOT
BRANCH  12  13
ATOM     13  C   LIG    1        1.668   0.079  -0.000  0.00  0.00    +0.427 C 
ATOM     14  O   LIG    1        2.519   0.979  -0.000  0.00  0.00    -0.224 OA
BRANCH  13  15
ATOM     15  O   LIG    1        1.960  -1.239   0.000  0.00  0.00    -0.452 OA
ATOM     16  C   LIG    1        3.308  -1.687   0.000  0.00  0.00    +0.282 C 
ENDBRANCH  13  15
ENDBRANCH  12  13
TORSDOF 2
