REMARK  Name = DB13720
REMARK                            x       y       z     vdW  Elec       q    Type
REMARK                         _______ _______ _______ _____ _____    ______ ____
ROOT
ATOM      1  C   LIG    1       -0.088  -0.210  -0.079  0.00  0.00    -0.092 C 
ATOM      2  N   LIG    1        1.436  -0.001   0.095  0.00  0.00    +0.377 N 
ATOM      3  C   LIG    1        1.678   0.794   1.403  0.00  0.00    -0.092 C 
ATOM      4  C   LIG    1        1.953   0.808  -1.129  0.00  0.00    -0.071 C 
ATOM      5  C   LIG    1        3.499   0.848  -1.190  0.00  0.00    +0.013 C 
ATOM      6  C   LIG    1        4.065  -0.576  -1.182  0.00  0.00    -0.065 C 
ATOM      7  C   LIG    1        4.828  -1.118  -2.172  0.00  0.00    -0.012 C 
ATOM      8  C   LIG    1        3.644  -1.308   0.097  0.00  0.00    +0.013 C 
ATOM      9  C   LIG    1        2.104  -1.402   0.181  0.00  0.00    -0.071 C 
ENDROOT
BRANCH   7  10
ATOM     10  C   LIG    1        5.266  -2.537  -2.168  0.00  0.00    -0.017 A 
ATOM     11  C   LIG    1        6.630  -2.851  -2.194  0.00  0.00    +0.008 A 
ATOM     12  C   LIG    1        7.043  -4.181  -2.204  0.00  0.00    +0.001 A 
ATOM     13  C   LIG    1        6.093  -5.199  -2.196  0.00  0.00    +0.000 A 
ATOM     14  C   LIG    1        4.733  -4.899  -2.180  0.00  0.00    +0.001 A 
ATOM     15  C   LIG    1        4.321  -3.570  -2.169  0.00  0.00    +0.008 A 
ENDBRANCH   7  10
BRANCH   7  16
ATOM     16  C   LIG    1        5.294  -0.345  -3.351  0.00  0.00    -0.017 A 
ATOM     17  C   LIG    1        4.961  -0.766  -4.644  0.00  0.00    +0.008 A 
ATOM     18  C   LIG    1        5.409  -0.052  -5.752  0.00  0.00    +0.001 A 
ATOM     19  C   LIG    1        6.196   1.082  -5.570  0.00  0.00    +0.000 A 
ATOM     20  C   LIG    1        6.543   1.506  -4.289  0.00  0.00    +0.001 A 
ATOM     21  C   LIG    1        6.096   0.791  -3.182  0.00  0.00    +0.008 A 
ENDBRANCH   7  16
TORSDOF 2
