REMARK  Name = DB13943
REMARK                            x       y       z     vdW  Elec       q    Type
REMARK                         _______ _______ _______ _____ _____    ______ ____
ROOT
ATOM      1  C   LIG    1       -4.807  -3.472   2.375  0.00  0.00    +0.032 C 
ATOM      2  C   LIG    1       -4.144  -2.542   1.352  0.00  0.00    +0.008 C 
ATOM      3  C   LIG    1       -2.693  -2.222   1.755  0.00  0.00    -0.003 C 
ATOM      4  C   LIG    1       -1.993  -1.314   0.707  0.00  0.00    +0.002 C 
ATOM      5  C   LIG    1       -0.529  -0.992   1.091  0.00  0.00    +0.008 C 
ATOM      6  C   LIG    1        0.386  -2.253   1.217  0.00  0.00    +0.015 C 
ATOM      7  C   LIG    1       -0.143  -0.157  -0.152  0.00  0.00    +0.183 C 
ATOM      8  C   LIG    1       -0.778  -0.898  -1.355  0.00  0.00    +0.045 C 
ATOM      9  C   LIG    1       -0.575  -0.195   2.418  0.00  0.00    +0.011 C 
ATOM     10  C   LIG    1       -1.259  -1.015   3.539  0.00  0.00    +0.005 C 
ATOM     11  C   LIG    1       -1.933  -1.736  -0.769  0.00  0.00    +0.008 C 
ATOM     12  C   LIG    1       -2.693  -1.504   3.146  0.00  0.00    +0.002 C 
ATOM     13  C   LIG    1       -3.414  -2.338   4.277  0.00  0.00    -0.007 C 
ATOM     14  C   LIG    1       -2.612  -3.603   4.688  0.00  0.00    +0.016 C 
ATOM     15  C   LIG    1       -3.617  -1.430   5.538  0.00  0.00    +0.019 C 
ATOM     16  C   LIG    1       -4.702  -1.903   6.525  0.00  0.00    +0.080 C 
ATOM     17  C   LIG    1       -6.036  -2.125   5.809  0.00  0.00    +0.156 C 
ATOM     18  O   LIG    1       -7.118  -1.944   6.365  0.00  0.00    -0.293 OA
ATOM     19  C   LIG    1       -5.949  -2.689   4.471  0.00  0.00    +0.046 C 
ATOM     20  C   LIG    1       -4.806  -2.808   3.755  0.00  0.00    -0.060 C 
ENDROOT
BRANCH   7  21
ATOM     21  O   LIG    1        1.269   0.026  -0.283  0.00  0.00    -0.461 OA
BRANCH  21  22
ATOM     22  C   LIG    1        1.784   0.977  -1.097  0.00  0.00    +0.307 C 
ATOM     23  O   LIG    1        1.141   1.770  -1.787  0.00  0.00    -0.251 OA
BRANCH  22  24
ATOM     24  C   LIG    1        3.312   0.982  -1.102  0.00  0.00    +0.121 C 
BRANCH  24  25
ATOM     25  C   LIG    1        3.900   0.116  -2.235  0.00  0.00    +0.014 C 
BRANCH  25  26
ATOM     26  C   LIG    1        5.441   0.185  -2.325  0.00  0.00    -0.010 C 
ATOM     27  C   LIG    1        6.168  -0.431  -1.105  0.00  0.00    +0.003 C 
ATOM     28  C   LIG    1        7.049  -1.563  -1.646  0.00  0.00    +0.000 C 
ATOM     29  C   LIG    1        7.323  -1.176  -3.096  0.00  0.00    +0.000 C 
ATOM     30  C   LIG    1        6.006  -0.550  -3.557  0.00  0.00    +0.003 C 
ENDBRANCH  25  26
ENDBRANCH  24  25
ENDBRANCH  22  24
ENDBRANCH  21  22
ENDBRANCH   7  21
TORSDOF 5
