REMARK  Name = DB13132
REMARK                            x       y       z     vdW  Elec       q    Type
REMARK                         _______ _______ _______ _____ _____    ______ ____
ROOT
ATOM      1  C   LIG    1       -0.136   0.085   0.071  0.00  0.00    +0.008 C 
ATOM      2  C   LIG    1        1.408   0.079   0.015  0.00  0.00    -0.008 C 
ATOM      3  C   LIG    1        1.995   0.724  -1.291  0.00  0.00    +0.034 C 
ATOM      4  C   LIG    1        3.566   0.893  -1.255  0.00  0.00    +0.173 C 
ATOM      5  O   LIG    1        3.919   1.890  -2.232  0.00  0.00    -0.218 OA
ATOM      6  O   LIG    1        4.224   1.413  -3.591  0.00  0.00    -0.199 OA
ATOM      7  C   LIG    1        3.723   0.116  -3.870  0.00  0.00    +0.204 C 
ATOM      8  O   LIG    1        4.193  -0.856  -2.924  0.00  0.00    -0.305 OA
ATOM      9  C   LIG    1        2.170   0.162  -3.876  0.00  0.00    +0.068 C 
ATOM     10  C   LIG    1        4.346  -0.284  -5.219  0.00  0.00    +0.077 C 
ATOM     11  C   LIG    1        4.312  -0.443  -1.575  0.00  0.00    +0.349 C 
ATOM     12  O   LIG    1        5.694  -0.491  -1.277  0.00  0.00    -0.432 OA
ATOM     13  C   LIG    1        6.336   0.372  -0.421  0.00  0.00    +0.313 C 
ATOM     14  O   LIG    1        7.481   0.040  -0.117  0.00  0.00    -0.250 OA
ATOM     15  C   LIG    1        5.595   1.635   0.075  0.00  0.00    +0.101 C 
ATOM     16  C   LIG    1        6.208   2.170   1.390  0.00  0.00    +0.019 C 
ATOM     17  C   LIG    1        4.053   1.491   0.093  0.00  0.00    +0.044 C 
ATOM     18  C   LIG    1        3.511   0.676   1.289  0.00  0.00    +0.008 C 
ATOM     19  C   LIG    1        1.485  -0.086  -2.520  0.00  0.00    +0.012 C 
ATOM     20  C   LIG    1        1.983   0.718   1.295  0.00  0.00    +0.004 C 
ENDROOT
TORSDOF 0
