REMARK  Name = DB13612
REMARK                            x       y       z     vdW  Elec       q    Type
REMARK                         _______ _______ _______ _____ _____    ______ ____
ROOT
ATOM      1  C   LIG    1        1.414   0.076   0.062  0.00  0.00    +0.146 A 
ATOM      2  C   LIG    1        2.104  -0.014  -1.154  0.00  0.00    +0.047 A 
ATOM      3  C   LIG    1        3.491  -0.129  -1.177  0.00  0.00    +0.004 A 
ATOM      4  C   LIG    1        4.205  -0.164   0.018  0.00  0.00    +0.001 A 
ATOM      5  C   LIG    1        3.530  -0.090   1.235  0.00  0.00    +0.018 A 
ATOM      6  C   LIG    1        2.131   0.022   1.281  0.00  0.00    +0.101 A 
ENDROOT
BRANCH   6   7
ATOM      7  C   LIG    1        1.443   0.080   2.612  0.00  0.00    +0.340 C 
ATOM      8  O   LIG    1        1.776   0.999   3.396  0.00  0.00    -0.245 OA
BRANCH   7   9
ATOM      9  O   LIG    1        0.586  -0.799   2.862  0.00  0.00    -0.477 OA
ATOM     10  H   LIG    1       -0.195  -0.852   2.347  0.00  0.00    +0.295 HD
ENDBRANCH   7   9
ENDBRANCH   6   7
BRANCH   1  11
ATOM     11  O   LIG    1        0.038   0.184   0.028  0.00  0.00    -0.425 OA
BRANCH  11  12
ATOM     12  C   LIG    1       -0.534   1.411  -0.109  0.00  0.00    +0.309 C 
ATOM     13  C   LIG    1       -2.056   1.335  -0.093  0.00  0.00    +0.136 C 
ATOM     14  O   LIG    1        0.048   2.491  -0.233  0.00  0.00    -0.251 OA
ENDBRANCH  11  12
ENDBRANCH   1  11
TORSDOF 4
