REMARK  Name = DB13689
REMARK                            x       y       z     vdW  Elec       q    Type
REMARK                         _______ _______ _______ _____ _____    ______ ____
ROOT
ATOM      1  C   LIG    1       -0.715   1.161   0.052  0.00  0.00    -0.002 C 
ATOM      2  C   LIG    1       -2.280   1.266   0.012  0.00  0.00    -0.022 C 
ATOM      3  C   LIG    1       -2.907   0.111  -0.833  0.00  0.00    +0.012 C 
ATOM      4  C   LIG    1       -2.963   1.394   1.404  0.00  0.00    +0.008 C 
ATOM      5  C   LIG    1       -4.456   1.775   1.276  0.00  0.00    +0.005 C 
ATOM      6  C   LIG    1       -4.675   3.061   0.440  0.00  0.00    +0.031 C 
ATOM      7  C   LIG    1       -3.920   2.998  -0.899  0.00  0.00    -0.066 C 
ATOM      8  C   LIG    1       -4.459   3.206  -2.122  0.00  0.00    -0.000 C 
ATOM      9  C   LIG    1       -2.439   2.653  -0.670  0.00  0.00    +0.021 C 
ATOM     10  C   LIG    1       -1.440   2.635  -1.829  0.00  0.00    +0.009 C 
ATOM     11  C   LIG    1       -0.251   1.846  -1.267  0.00  0.00    +0.005 C 
ENDROOT
BRANCH   8  12
ATOM     12  C   LIG    1       -5.854   3.520  -2.411  0.00  0.00    +0.004 C 
ATOM     13  C   LIG    1       -6.380   3.767  -3.635  0.00  0.00    -0.040 C 
ATOM     14  C   LIG    1       -5.606   3.802  -4.880  0.00  0.00    -0.023 C 
ATOM     15  C   LIG    1       -4.542   4.613  -5.035  0.00  0.00    +0.015 C 
ATOM     16  C   LIG    1       -6.112   2.916  -6.017  0.00  0.00    +0.147 C 
ATOM     17  C   LIG    1       -7.624   3.179  -6.225  0.00  0.00    +0.067 C 
ATOM     18  C   LIG    1       -8.444   3.106  -4.913  0.00  0.00    +0.122 C 
ATOM     19  C   LIG    1       -7.875   4.028  -3.807  0.00  0.00    +0.067 C 
BRANCH  16  20
ATOM     20  O   LIG    1       -5.871   1.553  -5.719  0.00  0.00    -0.387 OA
ATOM     21  H   LIG    1       -4.923   1.401  -5.737  0.00  0.00    +0.210 HD
ENDBRANCH  16  20
BRANCH  18  22
ATOM     22  O   LIG    1       -9.805   3.398  -5.156  0.00  0.00    -0.391 OA
ATOM     23  H   LIG    1      -10.323   2.612  -4.971  0.00  0.00    +0.210 HD
ENDBRANCH  18  22
ENDBRANCH   8  12
BRANCH   1  25
ATOM     24  C   LIG    1       -0.563  -0.955   1.559  0.00  0.00    +0.008 C 
ATOM     25  C   LIG    1       -0.060  -0.247   0.280  0.00  0.00    -0.010 C 
BRANCH  25  26
ATOM     26  C   LIG    1        1.494  -0.156   0.290  0.00  0.00    +0.006 C 
BRANCH  26  27
ATOM     27  C   LIG    1        2.232  -1.513   0.183  0.00  0.00    +0.032 C 
BRANCH  27  28
ATOM     28  C   LIG    1        3.762  -1.393  -0.040  0.00  0.00    +0.117 C 
BRANCH  28  29
ATOM     29  C   LIG    1        4.504  -2.759  -0.157  0.00  0.00    +0.011 C 
ATOM     30  C   LIG    1        3.955  -3.642  -1.298  0.00  0.00    +0.010 C 
ATOM     31  C   LIG    1        6.030  -2.587  -0.330  0.00  0.00    +0.010 C 
ENDBRANCH  28  29
BRANCH  28  32
ATOM     32  O   LIG    1        4.310  -0.648   1.035  0.00  0.00    -0.392 OA
ATOM     33  H   LIG    1        3.843   0.189   1.094  0.00  0.00    +0.210 HD
ENDBRANCH  28  32
ENDBRANCH  27  28
ENDBRANCH  26  27
ENDBRANCH  25  26
ENDBRANCH   1  25
TORSDOF 9
