REMARK  Name = DB13246
REMARK                            x       y       z     vdW  Elec       q    Type
REMARK                         _______ _______ _______ _____ _____    ______ ____
ROOT
ATOM      1  C   LIG    1        2.901   2.425  -3.128  0.00  0.00    +0.000 A 
ATOM      2  C   LIG    1        3.697   1.509  -2.451  0.00  0.00    +0.005 A 
ATOM      3  C   LIG    1        3.196   0.735  -1.395  0.00  0.00    -0.026 A 
ATOM      4  C   LIG    1        1.832   0.881  -1.018  0.00  0.00    +0.037 A 
ATOM      5  N   LIG    1        1.278   0.177   0.072  0.00  0.00    -0.295 N 
ATOM      6  C   LIG    1        1.875   0.361   1.332  0.00  0.00    +0.037 A 
ATOM      7  C   LIG    1        3.117  -0.242   1.602  0.00  0.00    -0.026 A 
ATOM      8  C   LIG    1        3.780  -1.062   0.505  0.00  0.00    +0.042 C 
ATOM      9  C   LIG    1        3.718  -0.063   2.853  0.00  0.00    +0.005 A 
ATOM     10  C   LIG    1        3.099   0.705   3.837  0.00  0.00    +0.000 A 
ATOM     11  C   LIG    1        1.873   1.308   3.575  0.00  0.00    +0.002 A 
ATOM     12  C   LIG    1        1.269   1.139   2.332  0.00  0.00    +0.024 A 
ATOM     13  C   LIG    1        1.056   1.831  -1.710  0.00  0.00    +0.024 A 
ATOM     14  C   LIG    1        4.173  -0.266  -0.754  0.00  0.00    +0.042 C 
ATOM     15  C   LIG    1        1.576   2.588  -2.754  0.00  0.00    +0.002 A 
ENDROOT
BRANCH   5  16
ATOM     16  C   LIG    1       -0.158  -0.217   0.042  0.00  0.00    +0.096 C 
ATOM     17  C   LIG    1       -0.646  -0.867  -1.296  0.00  0.00    +0.013 C 
ATOM     18  C   LIG    1       -0.050  -2.293  -1.353  0.00  0.00    +0.021 C 
ATOM     19  C   LIG    1       -0.494  -3.112  -0.103  0.00  0.00    +0.085 C 
ATOM     20  N   LIG    1       -1.374  -2.353   0.813  0.00  0.00    -0.301 NA
ATOM     21  C   LIG    1       -2.551  -1.901   0.042  0.00  0.00    +0.085 C 
ATOM     22  C   LIG    1       -2.180  -1.025  -1.191  0.00  0.00    +0.021 C 
ATOM     23  C   LIG    1       -0.640  -1.140   1.232  0.00  0.00    +0.107 C 
ENDBRANCH   5  16
TORSDOF 1
