REMARK  Name = DB13023
REMARK                            x       y       z     vdW  Elec       q    Type
REMARK                         _______ _______ _______ _____ _____    ______ ____
ROOT
ATOM      1  C   LIG    1       -0.361   1.535  -2.780  0.00  0.00    +0.008 C 
ATOM      2  C   LIG    1       -0.012   0.034  -2.694  0.00  0.00    -0.007 C 
ATOM      3  C   LIG    1       -0.431  -0.748  -3.972  0.00  0.00    +0.044 C 
ATOM      4  C   LIG    1       -1.906  -0.633  -4.420  0.00  0.00    +0.026 C 
ATOM      5  C   LIG    1       -2.809  -1.641  -3.794  0.00  0.00    +0.205 C 
ATOM      6  O   LIG    1       -2.430  -2.473  -2.965  0.00  0.00    -0.286 OA
ATOM      7  C   LIG    1       -4.212  -1.544  -4.270  0.00  0.00    +0.085 C 
ATOM      8  C   LIG    1       -4.619  -0.621  -5.182  0.00  0.00    +0.080 C 
ATOM      9  C   LIG    1       -3.738   0.352  -5.829  0.00  0.00    +0.202 C 
ATOM     10  O   LIG    1       -4.161   1.153  -6.667  0.00  0.00    -0.286 OA
ATOM     11  N   LIG    1       -5.055  -2.434  -3.649  0.00  0.00    -0.279 N 
ATOM     12  H   LIG    1       -4.641  -2.877  -2.841  0.00  0.00    +0.155 HD
ATOM     13  C   LIG    1       -6.321  -2.831  -3.936  0.00  0.00    +0.244 C 
ATOM     14  O   LIG    1       -6.956  -2.474  -4.930  0.00  0.00    -0.270 OA
ATOM     15  C   LIG    1       -6.880  -3.767  -2.966  0.00  0.00    +0.012 C 
ATOM     16  C   LIG    1       -7.763  -4.850  -3.590  0.00  0.00    +0.049 C 
ATOM     17  C   LIG    1       -6.609  -3.635  -1.641  0.00  0.00    +0.008 C 
ATOM     18  C   LIG    1       -7.068  -4.500  -0.565  0.00  0.00    -0.001 C 
ATOM     19  C   LIG    1       -6.724  -4.366   0.734  0.00  0.00    +0.008 C 
ATOM     20  C   LIG    1       -5.841  -3.294   1.386  0.00  0.00    +0.186 C 
ATOM     21  C   LIG    1       -4.326  -3.640   1.399  0.00  0.00    +0.236 C 
ATOM     22  C   LIG    1       -3.439  -2.542   2.017  0.00  0.00    -0.033 C 
ATOM     23  C   LIG    1       -3.570  -2.447   3.536  0.00  0.00    +0.042 C 
ATOM     24  C   LIG    1       -2.647  -1.732   1.270  0.00  0.00    -0.019 C 
ATOM     25  C   LIG    1       -1.696  -0.636   1.760  0.00  0.00    +0.040 C 
ATOM     26  C   LIG    1       -2.308   0.766   1.575  0.00  0.00    +0.014 C 
ATOM     27  C   LIG    1       -0.220  -0.748   1.258  0.00  0.00    +0.150 C 
ATOM     28  C   LIG    1        0.157  -0.036  -0.081  0.00  0.00    +0.147 C 
ATOM     29  C   LIG    1       -2.331   0.258  -5.367  0.00  0.00    +0.079 C 
ATOM     30  C   LIG    1       -0.493  -0.618  -1.365  0.00  0.00    +0.037 C 
ENDROOT
BRANCH  29  31
ATOM     31  N   LIG    1       -1.463   1.145  -5.963  0.00  0.00    -0.355 N 
ATOM     32  H   LIG    1       -0.484   1.166  -5.716  0.00  0.00    +0.142 HD
ATOM     33  H   LIG    1       -1.787   1.796  -6.665  0.00  0.00    +0.142 HD
ENDBRANCH  29  31
BRANCH  20  34
ATOM     34  O   LIG    1       -6.017  -1.987   0.830  0.00  0.00    -0.372 OA
ATOM     35  C   LIG    1       -7.282  -1.379   1.062  0.00  0.00    +0.195 C 
ENDBRANCH  20  34
BRANCH  27  36
ATOM     36  O   LIG    1        0.207  -2.101   1.247  0.00  0.00    -0.389 OA
ATOM     37  H   LIG    1       -0.314  -2.582   0.599  0.00  0.00    +0.210 HD
ENDBRANCH  27  36
BRANCH  28  38
ATOM     38  O   LIG    1        1.575  -0.063  -0.270  0.00  0.00    -0.377 OA
ATOM     39  C   LIG    1        2.325   0.901   0.459  0.00  0.00    +0.194 C 
ENDBRANCH  28  38
BRANCH  21  40
ATOM     40  O   LIG    1       -3.914  -4.024   0.078  0.00  0.00    -0.440 OA
BRANCH  40  41
ATOM     41  C   LIG    1       -2.863  -4.851  -0.132  0.00  0.00    +0.398 C 
ATOM     42  N   LIG    1       -2.769  -5.145  -1.472  0.00  0.00    -0.295 N 
ATOM     43  H   LIG    1       -2.032  -5.755  -1.793  0.00  0.00    +0.148 HD
ATOM     44  H   LIG    1       -3.422  -4.728  -2.119  0.00  0.00    +0.148 HD
ATOM     45  O   LIG    1       -2.111  -5.283   0.741  0.00  0.00    -0.227 OA
ENDBRANCH  40  41
ENDBRANCH  21  40
TORSDOF 6
