REMARK  Name = DB13312
REMARK                            x       y       z     vdW  Elec       q    Type
REMARK                         _______ _______ _______ _____ _____    ______ ____
ROOT
ATOM      1  C   LIG    1        0.143   2.023  -0.447  0.00  0.00    +0.138 C 
ATOM      2  C   LIG    1        0.762   3.048  -1.421  0.00  0.00    +0.034 C 
ENDROOT
BRANCH   1   4
ATOM      3  N   LIG    1       -1.983   2.813   0.686  0.00  0.00    -0.286 N 
ATOM      4  C   LIG    1       -1.402   2.210  -0.398  0.00  0.00    +0.233 C 
ATOM      5  O   LIG    1       -2.056   1.788  -1.357  0.00  0.00    -0.274 OA
BRANCH   3   6
ATOM      6  C   LIG    1       -3.450   2.969   0.864  0.00  0.00    +0.085 C 
ATOM      7  C   LIG    1       -4.133   3.847  -0.199  0.00  0.00    +0.058 C 
ATOM      8  C   LIG    1       -5.559   3.340  -0.190  0.00  0.00    -0.042 A 
ATOM      9  C   LIG    1       -6.694   3.880  -0.798  0.00  0.00    +0.004 A 
ATOM     10  C   LIG    1       -7.902   3.183  -0.754  0.00  0.00    +0.000 A 
ATOM     11  C   LIG    1       -7.968   1.932  -0.138  0.00  0.00    +0.000 A 
ATOM     12  C   LIG    1       -6.825   1.374   0.437  0.00  0.00    +0.004 A 
ATOM     13  C   LIG    1       -5.625   2.087   0.431  0.00  0.00    -0.042 A 
ATOM     14  C   LIG    1       -4.246   1.652   0.879  0.00  0.00    +0.058 C 
ENDBRANCH   3   6
BRANCH   3  15
ATOM     15  C   LIG    1       -1.210   3.427   1.794  0.00  0.00    +0.228 C 
BRANCH  15  16
ATOM     16  C   LIG    1       -0.846   2.469   2.959  0.00  0.00    +0.322 C 
ATOM     17  O   LIG    1       -0.141   2.968   3.863  0.00  0.00    -0.249 OA
BRANCH  16  18
ATOM     18  O   LIG    1       -1.244   1.280   2.956  0.00  0.00    -0.480 OA
ATOM     19  H   LIG    1       -1.771   0.964   2.249  0.00  0.00    +0.295 HD
ENDBRANCH  16  18
ENDBRANCH  15  16
ENDBRANCH   3  15
ENDBRANCH   1   4
BRANCH   1  20
ATOM     20  N   LIG    1        0.396   0.611  -0.818  0.00  0.00    -0.294 NA
ATOM     21  H   LIG    1       -0.241   0.030  -0.291  0.00  0.00    +0.123 HD
BRANCH  20  22
ATOM     22  C   LIG    1        1.770   0.169  -0.496  0.00  0.00    +0.164 C 
BRANCH  22  23
ATOM     23  C   LIG    1        2.272  -0.668  -1.658  0.00  0.00    +0.324 C 
ATOM     24  O   LIG    1        2.315  -1.902  -1.646  0.00  0.00    -0.249 OA
BRANCH  23  25
ATOM     25  O   LIG    1        2.653   0.115  -2.694  0.00  0.00    -0.464 OA
BRANCH  25  26
ATOM     26  C   LIG    1        3.141  -0.459  -3.899  0.00  0.00    +0.229 C 
ATOM     27  C   LIG    1        3.473   0.657  -4.893  0.00  0.00    +0.048 C 
ENDBRANCH  25  26
ENDBRANCH  23  25
ENDBRANCH  22  23
BRANCH  22  28
ATOM     28  C   LIG    1        1.822  -0.570   0.866  0.00  0.00    +0.035 C 
BRANCH  28  29
ATOM     29  C   LIG    1        3.244  -0.786   1.422  0.00  0.00    +0.037 C 
BRANCH  29  30
ATOM     30  C   LIG    1        3.240  -1.424   2.804  0.00  0.00    -0.047 A 
ATOM     31  C   LIG    1        3.100  -0.622   3.940  0.00  0.00    +0.003 A 
ATOM     32  C   LIG    1        3.087  -1.205   5.205  0.00  0.00    +0.000 A 
ATOM     33  C   LIG    1        3.212  -2.587   5.328  0.00  0.00    +0.000 A 
ATOM     34  C   LIG    1        3.349  -3.392   4.199  0.00  0.00    +0.000 A 
ATOM     35  C   LIG    1        3.362  -2.810   2.934  0.00  0.00    +0.003 A 
ENDBRANCH  29  30
ENDBRANCH  28  29
ENDBRANCH  22  28
ENDBRANCH  20  22
ENDBRANCH   1  20
TORSDOF 13
