REMARK  Name = DB13732
REMARK                            x       y       z     vdW  Elec       q    Type
REMARK                         _______ _______ _______ _____ _____    ______ ____
ROOT
ATOM      1  C   LIG    1       -0.004   0.200   0.117  0.00  0.00    +0.172 C 
ENDROOT
BRANCH   1   2
ATOM      2  O   LIG    1       -0.517   1.523   0.051  0.00  0.00    -0.387 OA
ATOM      3  H   LIG    1       -0.164   1.953  -0.732  0.00  0.00    +0.210 HD
ENDBRANCH   1   2
BRANCH   1   4
ATOM      4  C   LIG    1       -0.596  -0.564   1.340  0.00  0.00    +0.129 C 
BRANCH   4   5
ATOM      5  O   LIG    1       -0.212   0.035   2.569  0.00  0.00    -0.391 OA
ATOM      6  H   LIG    1       -0.448   0.966   2.542  0.00  0.00    +0.210 HD
ENDBRANCH   4   5
BRANCH   4   7
ATOM      7  C   LIG    1       -2.138  -0.698   1.272  0.00  0.00    -0.049 C 
BRANCH   7   9
ATOM      8  C   LIG    1       -4.206  -1.676   2.445  0.00  0.00    -0.100 C 
ATOM      9  N   LIG    1       -2.679  -1.523   2.455  0.00  0.00    +0.379 N 
ATOM     10  H   LIG    1       -2.256  -2.441   2.437  0.00  0.00    -0.086 HD
ATOM     11  H   LIG    1       -2.401  -1.075   3.317  0.00  0.00    -0.086 HD
ENDBRANCH   7   9
ENDBRANCH   4   7
ENDBRANCH   1   4
BRANCH   1  12
ATOM     12  C   LIG    1        1.554   0.197  -0.010  0.00  0.00    +0.176 C 
BRANCH  12  13
ATOM     13  O   LIG    1        2.158   0.832   1.106  0.00  0.00    -0.387 OA
ATOM     14  H   LIG    1        1.885   1.753   1.121  0.00  0.00    +0.210 HD
ENDBRANCH  12  13
BRANCH  12  15
ATOM     15  C   LIG    1        2.111   0.823  -1.324  0.00  0.00    +0.171 C 
BRANCH  15  16
ATOM     16  O   LIG    1        1.520   0.188  -2.446  0.00  0.00    -0.387 OA
ATOM     17  H   LIG    1        0.568   0.309  -2.406  0.00  0.00    +0.210 HD
ENDBRANCH  15  16
BRANCH  15  18
ATOM     18  C   LIG    1        3.650   0.716  -1.464  0.00  0.00    +0.189 C 
BRANCH  18  19
ATOM     19  O   LIG    1        4.120   1.482  -2.556  0.00  0.00    -0.392 OA
ATOM     20  H   LIG    1        3.805   1.079  -3.368  0.00  0.00    +0.210 HD
ENDBRANCH  18  19
ENDBRANCH  15  18
ENDBRANCH  12  15
ENDBRANCH   1  12
TORSDOF 11
