REMARK  Name = DB13100
REMARK                            x       y       z     vdW  Elec       q    Type
REMARK                         _______ _______ _______ _____ _____    ______ ____
ROOT
ATOM      1  N   LIG    1        0.138  -0.238   0.000  0.00  0.00    -0.186 N 
ATOM      2  H   LIG    1       -0.367   0.635   0.000  0.00  0.00    +0.271 HD
ENDROOT
BRANCH   1   3
ATOM      3  C   LIG    1       -0.679  -1.408   0.000  0.00  0.00    +0.385 C 
ATOM      4  N   LIG    1       -0.277  -2.605   0.000  0.00  0.00    -0.129 NA
ATOM      5  H   LIG    1       -1.032  -3.275   0.000  0.00  0.00    +0.306 HD
BRANCH   3   6
ATOM      6  N   LIG    1       -2.052  -1.085   0.000  0.00  0.00    -0.289 N 
ATOM      7  H   LIG    1       -2.386  -0.132   0.000  0.00  0.00    +0.255 HD
ATOM      8  H   LIG    1       -2.772  -1.793   0.000  0.00  0.00    +0.255 HD
ENDBRANCH   3   6
ENDBRANCH   1   3
BRANCH   1   9
ATOM      9  C   LIG    1        1.559  -0.116   0.000  0.00  0.00    +0.385 C 
ATOM     10  N   LIG    1        2.394  -1.063   0.000  0.00  0.00    -0.129 NA
ATOM     11  H   LIG    1        3.352  -0.744  -0.000  0.00  0.00    +0.306 HD
BRANCH   9  12
ATOM     12  N   LIG    1        1.966   1.235   0.000  0.00  0.00    -0.289 N 
ATOM     13  H   LIG    1        1.307   2.000   0.000  0.00  0.00    +0.255 HD
ATOM     14  H   LIG    1        2.939   1.504  -0.000  0.00  0.00    +0.255 HD
ENDBRANCH   9  12
ENDBRANCH   1   9
TORSDOF 4
