REMARK  Name = DB13027
REMARK                            x       y       z     vdW  Elec       q    Type
REMARK                         _______ _______ _______ _____ _____    ______ ____
ROOT
ATOM      1  O   LIG    1        1.338  -0.167  -0.002  0.00  0.00    -0.487 OA
ENDROOT
BRANCH   1   4
ATOM      2  C   LIG    1       -2.243  -1.141  -0.002  0.00  0.00    +0.007 A 
ATOM      3  C   LIG    1       -0.857  -1.241  -0.003  0.00  0.00    +0.046 A 
ATOM      4  C   LIG    1       -0.046  -0.092  -0.002  0.00  0.00    +0.135 A 
ATOM      5  C   LIG    1       -0.663   1.182  -0.001  0.00  0.00    +0.097 A 
ATOM      6  C   LIG    1       -2.072   1.266  -0.000  0.00  0.00    +0.131 A 
ATOM      7  C   LIG    1       -2.848   0.109  -0.001  0.00  0.00    +0.046 A 
BRANCH   5   8
ATOM      8  C   LIG    1        0.144   2.449   0.000  0.00  0.00    +0.266 C 
ATOM      9  O   LIG    1        1.373   2.525   0.000  0.00  0.00    -0.295 OA
ENDBRANCH   5   8
BRANCH   6  10
ATOM     10  O   LIG    1       -2.743   2.467   0.001  0.00  0.00    -0.506 OA
ATOM     11  H   LIG    1       -3.697   2.359   0.002  0.00  0.00    +0.292 HD
ENDBRANCH   6  10
ENDBRANCH   1   4
BRANCH   1  12
ATOM     12  C   LIG    1        1.993  -1.432  -0.001  0.00  0.00    +0.264 C 
BRANCH  12  13
ATOM     13  C   LIG    1        3.494  -1.203   0.001  0.00  0.00    -0.010 A 
ATOM     14  C   LIG    1        4.185  -1.091  -1.204  0.00  0.00    +0.008 A 
ATOM     15  C   LIG    1        5.560  -0.872  -1.202  0.00  0.00    +0.015 A 
ATOM     16  C   LIG    1        6.279  -0.758   0.004  0.00  0.00    +0.059 A 
ATOM     17  C   LIG    1        5.557  -0.872   1.209  0.00  0.00    +0.015 A 
ATOM     18  C   LIG    1        4.182  -1.090   1.208  0.00  0.00    +0.008 A 
BRANCH  16  19
ATOM     19  C   LIG    1        7.776  -0.521   0.006  0.00  0.00    +0.337 C 
ATOM     20  O   LIG    1        8.375  -0.427  -1.092  0.00  0.00    -0.245 OA
BRANCH  19  21
ATOM     21  O   LIG    1        8.373  -0.427   1.106  0.00  0.00    -0.477 OA
ATOM     22  H   LIG    1        7.893  -0.503   1.907  0.00  0.00    +0.295 HD
ENDBRANCH  19  21
ENDBRANCH  16  19
ENDBRANCH  12  13
ENDBRANCH   1  12
TORSDOF 7
