REMARK  Name = DB13766
REMARK                            x       y       z     vdW  Elec       q    Type
REMARK                         _______ _______ _______ _____ _____    ______ ____
ROOT
ATOM      1  N   LIG    1        1.739  -0.285   0.443  0.00  0.00    -0.300 NA
ATOM      2  C   LIG    1        2.198  -1.646   0.750  0.00  0.00    +0.100 C 
ATOM      3  C   LIG    1        3.744  -1.700   0.761  0.00  0.00    +0.100 C 
ATOM      4  N   LIG    1        4.272  -1.327  -0.563  0.00  0.00    -0.292 NA
ATOM      5  C   LIG    1        3.824   0.041  -0.860  0.00  0.00    +0.100 C 
ATOM      6  C   LIG    1        2.277   0.112  -0.868  0.00  0.00    +0.100 C 
ENDROOT
BRANCH   1   7
ATOM      7  C   LIG    1        0.272  -0.236   0.483  0.00  0.00    +0.084 C 
BRANCH   7   8
ATOM      8  C   LIG    1       -0.311   1.189   0.358  0.00  0.00    +0.016 C 
BRANCH   8   9
ATOM      9  C   LIG    1        0.171   2.175   1.445  0.00  0.00    +0.014 C 
BRANCH   9  10
ATOM     10  C   LIG    1       -0.454   3.593   1.338  0.00  0.00    +0.049 C 
BRANCH  10  15
ATOM     11  C   LIG    1        0.491   6.092   4.734  0.00  0.00    +0.123 A 
ATOM     12  F   LIG    1        0.782   6.873   5.798  0.00  0.00    -0.205 F 
ATOM     13  C   LIG    1       -0.836   5.913   4.350  0.00  0.00    +0.038 A 
ATOM     14  C   LIG    1       -1.137   5.109   3.253  0.00  0.00    +0.007 A 
ATOM     15  C   LIG    1       -0.110   4.484   2.536  0.00  0.00    -0.040 A 
ATOM     16  C   LIG    1        1.220   4.668   2.933  0.00  0.00    +0.007 A 
ATOM     17  C   LIG    1        1.520   5.471   4.029  0.00  0.00    +0.038 A 
ENDBRANCH  10  15
BRANCH  10  18
ATOM     18  C   LIG    1       -0.180   4.305   0.007  0.00  0.00    -0.040 A 
ATOM     19  C   LIG    1       -1.230   4.949  -0.657  0.00  0.00    +0.007 A 
ATOM     20  C   LIG    1       -1.004   5.586  -1.874  0.00  0.00    +0.038 A 
ATOM     21  C   LIG    1        0.272   5.577  -2.433  0.00  0.00    +0.123 A 
ATOM     22  F   LIG    1        0.491   6.196  -3.615  0.00  0.00    -0.205 F 
ATOM     23  C   LIG    1        1.324   4.935  -1.783  0.00  0.00    +0.038 A 
ATOM     24  C   LIG    1        1.099   4.300  -0.565  0.00  0.00    +0.007 A 
ENDBRANCH  10  18
ENDBRANCH   9  10
ENDBRANCH   8   9
ENDBRANCH   7   8
ENDBRANCH   1   7
BRANCH   4  25
ATOM     25  C   LIG    1        5.742  -1.406  -0.616  0.00  0.00    +0.180 C 
BRANCH  25  26
ATOM     26  C   LIG    1        6.238  -2.868  -0.675  0.00  0.00    +0.231 C 
ATOM     27  O   LIG    1        5.542  -3.756  -1.176  0.00  0.00    -0.274 OA
ATOM     28  N   LIG    1        7.462  -3.082  -0.149  0.00  0.00    -0.284 N 
ATOM     29  H   LIG    1        7.896  -2.323   0.355  0.00  0.00    +0.155 HD
BRANCH  28  30
ATOM     30  C   LIG    1        8.128  -4.322  -0.091  0.00  0.00    +0.039 A 
ATOM     31  C   LIG    1        8.458  -5.060  -1.252  0.00  0.00    -0.029 A 
ATOM     32  C   LIG    1        8.184  -4.550  -2.664  0.00  0.00    +0.045 C 
ATOM     33  C   LIG    1        9.119  -6.284  -1.121  0.00  0.00    +0.005 A 
ATOM     34  C   LIG    1        9.468  -6.773   0.134  0.00  0.00    +0.001 A 
ATOM     35  C   LIG    1        9.170  -6.036   1.276  0.00  0.00    +0.005 A 
ATOM     36  C   LIG    1        8.508  -4.809   1.176  0.00  0.00    -0.029 A 
ATOM     37  C   LIG    1        8.201  -4.039   2.457  0.00  0.00    +0.045 C 
ENDBRANCH  28  30
ENDBRANCH  25  26
ENDBRANCH   4  25
TORSDOF 9
