REMARK  Name = DB13087
REMARK                            x       y       z     vdW  Elec       q    Type
REMARK                         _______ _______ _______ _____ _____    ______ ____
ROOT
ATOM      1  C   LIG    1       -0.064   0.187   0.299  0.00  0.00    +0.010 C 
ENDROOT
BRANCH   1   2
ATOM      2  C   LIG    1       -0.736   1.568   0.105  0.00  0.00    +0.096 C 
BRANCH   2   6
ATOM      3  C   LIG    1       -3.432   5.005  -0.437  0.00  0.00    +0.021 C 
ATOM      4  C   LIG    1       -2.300   3.983  -0.386  0.00  0.00    +0.109 C 
ATOM      5  N   LIG    1       -2.940   2.712  -0.035  0.00  0.00    -0.288 N 
ATOM      6  C   LIG    1       -2.277   1.548   0.172  0.00  0.00    +0.216 C 
ATOM      7  O   LIG    1       -2.871   0.493   0.405  0.00  0.00    -0.276 OA
ATOM      8  C   LIG    1       -4.418   2.840  -0.002  0.00  0.00    +0.184 C 
ATOM      9  C   LIG    1       -4.645   4.155  -0.783  0.00  0.00    +0.035 C 
BRANCH   8  10
ATOM     10  C   LIG    1       -5.116   2.832   1.414  0.00  0.00    +0.325 C 
ATOM     11  O   LIG    1       -6.367   2.886   1.366  0.00  0.00    -0.249 OA
BRANCH  10  12
ATOM     12  O   LIG    1       -4.372   2.783   2.423  0.00  0.00    -0.479 OA
ATOM     13  H   LIG    1       -3.442   2.745   2.318  0.00  0.00    +0.295 HD
ENDBRANCH  10  12
ENDBRANCH   8  10
ENDBRANCH   2   6
ENDBRANCH   1   2
BRANCH   1  14
ATOM     14  C   LIG    1        1.467   0.202   0.123  0.00  0.00    +0.010 C 
BRANCH  14  15
ATOM     15  C   LIG    1        2.218   1.017   1.203  0.00  0.00    +0.096 C 
BRANCH  15  16
ATOM     16  C   LIG    1        3.756   0.974   1.090  0.00  0.00    +0.216 C 
ATOM     17  N   LIG    1        4.484   1.811   1.875  0.00  0.00    -0.288 N 
ATOM     18  C   LIG    1        5.965   1.948   1.838  0.00  0.00    +0.184 C 
ATOM     19  C   LIG    1        6.244   3.031   2.912  0.00  0.00    +0.035 C 
ATOM     20  C   LIG    1        5.062   2.958   3.859  0.00  0.00    +0.021 C 
ATOM     21  C   LIG    1        3.905   2.658   2.920  0.00  0.00    +0.109 C 
ATOM     22  O   LIG    1        4.287   0.196   0.295  0.00  0.00    -0.276 OA
BRANCH  18  23
ATOM     23  C   LIG    1        6.577   2.302   0.431  0.00  0.00    +0.325 C 
ATOM     24  O   LIG    1        7.362   1.440  -0.025  0.00  0.00    -0.249 OA
BRANCH  23  25
ATOM     25  O   LIG    1        6.205   3.387  -0.076  0.00  0.00    -0.479 OA
ATOM     26  H   LIG    1        5.605   3.940   0.386  0.00  0.00    +0.295 HD
ENDBRANCH  23  25
ENDBRANCH  18  23
ENDBRANCH  15  16
ENDBRANCH  14  15
ENDBRANCH   1  14
TORSDOF 9
