REMARK  Name = DB13255
REMARK                            x       y       z     vdW  Elec       q    Type
REMARK                         _______ _______ _______ _____ _____    ______ ____
ROOT
ATOM      1  C   LIG    1        0.037  -0.090   0.128  0.00  0.00    +0.080 C 
ENDROOT
BRANCH   1   3
ATOM      2  C   LIG    1        0.164  -2.246   1.650  0.00  0.00    +0.005 C 
ATOM      3  C   LIG    1       -0.270  -0.775   1.498  0.00  0.00    +0.014 C 
ENDBRANCH   1   3
BRANCH   1   4
ATOM      4  C   LIG    1       -0.550   1.350   0.149  0.00  0.00    +0.281 C 
BRANCH   4   5
ATOM      5  O   LIG    1        0.075   2.132   1.175  0.00  0.00    -0.354 OA
BRANCH   5   6
ATOM      6  N   LIG    1       -0.386   3.485   1.261  0.00  0.00    +0.171 N 
ATOM      7  O   LIG    1       -1.246   3.841   0.485  0.00  0.00    -0.094 OA
BRANCH   6   8
ATOM      8  O   LIG    1        0.172   4.105   2.133  0.00  0.00    -0.370 OA
ATOM      9  H   LIG    1        0.826   3.688   2.659  0.00  0.00    +0.332 HD
ENDBRANCH   6   8
ENDBRANCH   5   6
ENDBRANCH   4   5
ENDBRANCH   1   4
BRANCH   1  10
ATOM     10  C   LIG    1       -0.615  -0.879  -1.042  0.00  0.00    +0.281 C 
BRANCH  10  11
ATOM     11  O   LIG    1       -2.024  -1.025  -0.824  0.00  0.00    -0.354 OA
BRANCH  11  12
ATOM     12  N   LIG    1       -2.715  -1.757  -1.841  0.00  0.00    +0.171 N 
ATOM     13  O   LIG    1       -3.895  -1.860  -1.611  0.00  0.00    -0.094 OA
BRANCH  12  14
ATOM     14  O   LIG    1       -2.069  -2.173  -2.778  0.00  0.00    -0.370 OA
ATOM     15  H   LIG    1       -1.147  -2.012  -2.819  0.00  0.00    +0.332 HD
ENDBRANCH  12  14
ENDBRANCH  11  12
ENDBRANCH  10  11
ENDBRANCH   1  10
BRANCH   1  16
ATOM     16  C   LIG    1        1.573  -0.018  -0.102  0.00  0.00    +0.281 C 
BRANCH  16  17
ATOM     17  O   LIG    1        1.867   0.694  -1.311  0.00  0.00    -0.354 OA
BRANCH  17  18
ATOM     18  N   LIG    1        3.263   0.842  -1.594  0.00  0.00    +0.171 N 
ATOM     19  O   LIG    1        3.461   1.449  -2.618  0.00  0.00    -0.094 OA
BRANCH  18  20
ATOM     20  O   LIG    1        4.053   0.363  -0.811  0.00  0.00    -0.370 OA
ATOM     21  H   LIG    1        3.745  -0.087  -0.049  0.00  0.00    +0.332 HD
ENDBRANCH  18  20
ENDBRANCH  17  18
ENDBRANCH  16  17
ENDBRANCH   1  16
TORSDOF 13
