REMARK  Name = DB13269
REMARK                            x       y       z     vdW  Elec       q    Type
REMARK                         _______ _______ _______ _____ _____    ______ ____
ROOT
ATOM      1  C   LIG    1       -0.704   1.181  -0.034  0.00  0.00    +0.009 A 
ATOM      2  C   LIG    1       -2.098   1.196  -0.022  0.00  0.00    +0.020 A 
ATOM      3  C   LIG    1       -2.808  -0.003   0.009  0.00  0.00    +0.042 A 
ATOM      4  C   LIG    1       -2.122  -1.216   0.033  0.00  0.00    +0.040 A 
ATOM      5  C   LIG    1       -0.726  -1.239   0.021  0.00  0.00    +0.048 A 
ATOM      6 CL   LIG    1        0.073  -2.774   0.064  0.00  0.00    -0.083 Cl
ATOM      7 CL   LIG    1       -4.534   0.015   0.021  0.00  0.00    -0.083 Cl
ATOM      8  C   LIG    1       -0.005  -0.032  -0.017  0.00  0.00    -0.004 A 
ENDROOT
BRANCH   8   9
ATOM      9  C   LIG    1        1.520  -0.008  -0.030  0.00  0.00    +0.192 C 
BRANCH   9  10
ATOM     10  O   LIG    1        2.065  -0.516  -1.230  0.00  0.00    -0.390 OA
ATOM     11  H   LIG    1        3.021  -0.534  -1.149  0.00  0.00    +0.210 HD
ENDBRANCH   9  10
ENDBRANCH   8   9
TORSDOF 2
