REMARK  Name = DB13911
REMARK                            x       y       z     vdW  Elec       q    Type
REMARK                         _______ _______ _______ _____ _____    ______ ____
ROOT
ATOM      1  C   LIG    1       -2.910  -2.382   0.049  0.00  0.00    +0.103 A 
ATOM      2 BR   LIG    1       -4.821  -2.213   0.110  0.00  0.00    -0.043 Br
ATOM      3  C   LIG    1       -2.145  -1.212   0.025  0.00  0.00    +0.154 A 
ATOM      4  O   LIG    1       -2.831  -0.007   0.043  0.00  0.00    -0.452 OA
ATOM      5  C   LIG    1       -2.130   1.160   0.025  0.00  0.00    +0.154 A 
ATOM      6  C   LIG    1       -2.886   2.285   0.052  0.00  0.00    +0.108 A 
ATOM      7 BR   LIG    1       -4.866   2.170   0.107  0.00  0.00    -0.042 Br
ATOM      8  C   LIG    1       -2.289   3.645   0.041  0.00  0.00    +0.210 A 
ATOM      9  O   LIG    1       -2.965   4.673   0.068  0.00  0.00    -0.285 OA
ATOM     10  C   LIG    1       -0.806   3.658  -0.004  0.00  0.00    +0.066 A 
ATOM     11 BR   LIG    1        0.102   5.414  -0.031  0.00  0.00    -0.046 Br
ATOM     12  C   LIG    1       -0.067   2.526  -0.028  0.00  0.00    +0.031 A 
ATOM     13  C   LIG    1       -0.670   1.198  -0.013  0.00  0.00    +0.028 A 
ATOM     14  C   LIG    1        0.013   0.027  -0.037  0.00  0.00    +0.006 A 
ATOM     15  C   LIG    1       -0.742  -1.255  -0.015  0.00  0.00    +0.028 A 
ATOM     16  C   LIG    1       -0.112  -2.502  -0.031  0.00  0.00    +0.031 A 
ATOM     17  C   LIG    1       -0.852  -3.684  -0.011  0.00  0.00    +0.061 A 
ATOM     18 BR   LIG    1        0.134  -5.326  -0.041  0.00  0.00    -0.046 Br
ATOM     19  C   LIG    1       -2.260  -3.634   0.030  0.00  0.00    +0.148 A 
ENDROOT
BRANCH  14  20
ATOM     20  C   LIG    1        1.507   0.011  -0.054  0.00  0.00    +0.019 A 
ATOM     21  C   LIG    1        2.235  -0.065  -1.267  0.00  0.00    +0.088 A 
ATOM     22  C   LIG    1        3.646  -0.101  -1.229  0.00  0.00    +0.075 A 
ATOM     23 CL   LIG    1        4.583  -0.190  -2.695  0.00  0.00    -0.081 Cl
ATOM     24  C   LIG    1        4.319  -0.064  -0.000  0.00  0.00    +0.080 A 
ATOM     25 CL   LIG    1        6.055  -0.110   0.043  0.00  0.00    -0.080 Cl
ATOM     26  C   LIG    1        3.598   0.009   1.196  0.00  0.00    +0.080 A 
ATOM     27 CL   LIG    1        4.439   0.052   2.714  0.00  0.00    -0.080 Cl
ATOM     28  C   LIG    1        2.199   0.045   1.170  0.00  0.00    +0.069 A 
ATOM     29 CL   LIG    1        1.321   0.126   2.669  0.00  0.00    -0.081 Cl
BRANCH  21  30
ATOM     30  C   LIG    1        1.521  -0.098  -2.586  0.00  0.00    +0.339 C 
ATOM     31  O   LIG    1        1.264   1.004  -3.122  0.00  0.00    -0.245 OA
BRANCH  30  32
ATOM     32  O   LIG    1        1.232  -1.223  -3.052  0.00  0.00    -0.477 OA
ATOM     33  H   LIG    1        1.464  -1.999  -2.581  0.00  0.00    +0.295 HD
ENDBRANCH  30  32
ENDBRANCH  21  30
ENDBRANCH  14  20
BRANCH  19  34
ATOM     34  O   LIG    1       -2.940  -4.713   0.052  0.00  0.00    -0.504 OA
ATOM     35  H   LIG    1       -3.876  -4.677   0.079  0.00  0.00    +0.292 HD
ENDBRANCH  19  34
TORSDOF 4
