REMARK  Name = DB13059
REMARK                            x       y       z     vdW  Elec       q    Type
REMARK                         _______ _______ _______ _____ _____    ______ ____
ROOT
ATOM      1  C   LIG    1       -5.281   1.692   1.053  0.00  0.00    +0.234 C 
ATOM      2  N   LIG    1       -4.467   1.002   0.222  0.00  0.00    -0.286 N 
ATOM      3  C   LIG    1       -3.551   1.533  -0.775  0.00  0.00    +0.107 C 
ATOM      4  C   LIG    1       -2.336   0.730  -0.337  0.00  0.00    -0.020 A 
ATOM      5  C   LIG    1       -0.972   1.009  -0.323  0.00  0.00    +0.029 A 
ATOM      6  C   LIG    1       -0.075   0.043   0.158  0.00  0.00    +0.034 A 
ATOM      7  C   LIG    1       -0.569  -1.165   0.670  0.00  0.00    +0.023 A 
ATOM      8  C   LIG    1       -1.941  -1.434   0.670  0.00  0.00    +0.007 A 
ATOM      9  C   LIG    1       -2.817  -0.483   0.150  0.00  0.00    -0.022 A 
ATOM     10  C   LIG    1       -4.172   0.878  -2.031  0.00  0.00    +0.029 C 
ATOM     11  C   LIG    1       -4.706  -0.472  -1.494  0.00  0.00    +0.029 C 
ATOM     12  C   LIG    1       -4.331  -0.431   0.007  0.00  0.00    +0.107 C 
ATOM     13  O   LIG    1       -5.306   2.925   1.053  0.00  0.00    -0.274 OA
ENDROOT
BRANCH   6  14
ATOM     14  N   LIG    1        1.313   0.261   0.163  0.00  0.00    -0.284 N 
ATOM     15  H   LIG    1        1.795  -0.074   0.984  0.00  0.00    +0.155 HD
BRANCH  14  16
ATOM     16  C   LIG    1        2.126   0.934  -0.761  0.00  0.00    +0.221 A 
ATOM     17  N   LIG    1        1.597   1.339  -1.946  0.00  0.00    -0.199 NA
ATOM     18  C   LIG    1        2.415   1.976  -2.830  0.00  0.00    +0.136 A 
ATOM     19  C   LIG    1        3.774   2.204  -2.531  0.00  0.00    +0.113 A 
ATOM     20  C   LIG    1        4.225   1.739  -1.287  0.00  0.00    +0.130 A 
ATOM     21  N   LIG    1        3.420   1.103  -0.398  0.00  0.00    -0.222 NA
BRANCH  19  22
ATOM     22  C   LIG    1        4.728   2.914  -3.497  0.00  0.00    +0.422 C 
ATOM     23  F   LIG    1        5.967   3.003  -3.012  0.00  0.00    -0.166 F 
ATOM     24  F   LIG    1        4.290   4.150  -3.737  0.00  0.00    -0.166 F 
ATOM     25  F   LIG    1        4.785   2.246  -4.650  0.00  0.00    -0.166 F 
ENDBRANCH  19  22
BRANCH  18  26
ATOM     26  N   LIG    1        1.874   2.415  -4.054  0.00  0.00    -0.326 N 
ATOM     27  H   LIG    1        2.528   2.724  -4.758  0.00  0.00    +0.148 HD
BRANCH  26  28
ATOM     28  C   LIG    1        0.552   1.993  -4.511  0.00  0.00    +0.072 C 
ATOM     29  C   LIG    1       -0.656   2.640  -3.809  0.00  0.00    +0.022 C 
ATOM     30  C   LIG    1       -1.348   2.664  -5.178  0.00  0.00    +0.004 C 
ATOM     31  C   LIG    1        0.056   2.665  -5.800  0.00  0.00    +0.022 C 
ENDBRANCH  26  28
ENDBRANCH  18  26
ENDBRANCH  14  16
ENDBRANCH   6  14
BRANCH   1  32
ATOM     32  C   LIG    1       -6.211   0.887   1.991  0.00  0.00    +0.200 C 
BRANCH  32  35
ATOM     33  C   LIG    1       -6.533   2.832   5.289  0.00  0.00    +0.109 C 
ATOM     34  C   LIG    1       -5.906   1.948   4.217  0.00  0.00    +0.210 C 
ATOM     35  N   LIG    1       -6.657   1.688   3.134  0.00  0.00    -0.307 N 
ATOM     36  H   LIG    1       -7.583   2.086   3.071  0.00  0.00    +0.149 HD
ATOM     37  O   LIG    1       -4.766   1.512   4.375  0.00  0.00    -0.276 OA
ENDBRANCH  32  35
ENDBRANCH   1  32
TORSDOF 7
