REMARK  Name = DB13910
REMARK                            x       y       z     vdW  Elec       q    Type
REMARK                         _______ _______ _______ _____ _____    ______ ____
ROOT
ATOM      1  C   LIG    1       -0.042  -0.060   0.147  0.00  0.00    +0.098 C 
ENDROOT
BRANCH   1   2
ATOM      2  C   LIG    1       -0.603  -0.852   1.364  0.00  0.00    +0.308 C 
ATOM      3  O   LIG    1       -0.321  -0.454   2.519  0.00  0.00    -0.251 OA
BRANCH   2   4
ATOM      4  O   LIG    1       -1.312  -1.855   1.120  0.00  0.00    -0.480 OA
ATOM      5  H   LIG    1       -1.486  -2.101   0.232  0.00  0.00    +0.295 HD
ENDBRANCH   2   4
ENDBRANCH   1   2
BRANCH   1   6
ATOM      6  C   LIG    1       -0.583   1.400   0.113  0.00  0.00    +0.014 C 
BRANCH   6   7
ATOM      7  C   LIG    1       -2.117   1.532  -0.006  0.00  0.00    -0.003 C 
ATOM      8  C   LIG    1       -2.583   2.988  -0.139  0.00  0.00    +0.004 C 
ENDBRANCH   6   7
ENDBRANCH   1   6
BRANCH   1   9
ATOM      9  C   LIG    1        1.514  -0.083   0.113  0.00  0.00    +0.014 C 
BRANCH   9  10
ATOM     10  C   LIG    1        2.150  -1.486  -0.006  0.00  0.00    -0.003 C 
ATOM     11  C   LIG    1        3.678  -1.440  -0.139  0.00  0.00    +0.004 C 
ENDBRANCH   9  10
ENDBRANCH   1   9
TORSDOF 6
