REMARK  Name = DB13011
REMARK                            x       y       z     vdW  Elec       q    Type
REMARK                         _______ _______ _______ _____ _____    ______ ____
ROOT
ATOM      1  C   LIG    1        0.246   0.210   0.107  0.00  0.00    -0.021 C 
ENDROOT
BRANCH   1   2
ATOM      2  C   LIG    1       -0.173   1.685  -0.003  0.00  0.00    -0.083 C 
BRANCH   2   3
ATOM      3  N   LIG    1       -1.707   1.781   0.003  0.00  0.00    +0.379 N 
ATOM      4  H   LIG    1       -2.069   1.250  -0.777  0.00  0.00    -0.086 HD
ATOM      5  H   LIG    1       -2.057   1.363   0.853  0.00  0.00    -0.086 HD
BRANCH   3   6
ATOM      6  C   LIG    1       -2.237   3.220  -0.093  0.00  0.00    -0.083 C 
BRANCH   6   7
ATOM      7  C   LIG    1       -3.776   3.194  -0.104  0.00  0.00    -0.021 C 
BRANCH   7   8
ATOM      8  C   LIG    1       -4.425   4.591  -0.132  0.00  0.00    -0.021 C 
BRANCH   8   9
ATOM      9  C   LIG    1       -4.128   5.392  -1.411  0.00  0.00    -0.083 C 
BRANCH   9  10
ATOM     10  N   LIG    1       -4.885   6.729  -1.360  0.00  0.00    +0.379 N 
ATOM     11  H   LIG    1       -5.875   6.541  -1.295  0.00  0.00    -0.086 HD
ATOM     12  H   LIG    1       -4.607   7.230  -0.527  0.00  0.00    -0.086 HD
BRANCH  10  14
ATOM     13  C   LIG    1       -5.435   8.925  -2.440  0.00  0.00    -0.017 C 
ATOM     14  C   LIG    1       -4.632   7.626  -2.582  0.00  0.00    -0.086 C 
ENDBRANCH  10  14
ENDBRANCH   9  10
ENDBRANCH   8   9
ENDBRANCH   7   8
ENDBRANCH   6   7
ENDBRANCH   3   6
ENDBRANCH   2   3
ENDBRANCH   1   2
BRANCH   1  15
ATOM     15  C   LIG    1        1.777   0.031   0.077  0.00  0.00    -0.021 C 
BRANCH  15  16
ATOM     16  C   LIG    1        2.247  -1.424   0.255  0.00  0.00    -0.083 C 
BRANCH  16  17
ATOM     17  N   LIG    1        1.813  -2.273  -0.952  0.00  0.00    +0.379 N 
ATOM     18  H   LIG    1        2.201  -1.866  -1.792  0.00  0.00    -0.086 HD
ATOM     19  H   LIG    1        0.806  -2.240  -1.026  0.00  0.00    -0.086 HD
BRANCH  17  20
ATOM     20  C   LIG    1        2.253  -3.742  -0.867  0.00  0.00    -0.083 C 
BRANCH  20  21
ATOM     21  C   LIG    1        1.739  -4.496  -2.106  0.00  0.00    -0.021 C 
BRANCH  21  22
ATOM     22  C   LIG    1        2.167  -5.974  -2.162  0.00  0.00    -0.021 C 
BRANCH  22  23
ATOM     23  C   LIG    1        1.575  -6.839  -1.037  0.00  0.00    -0.083 C 
BRANCH  23  24
ATOM     24  N   LIG    1        2.010  -8.299  -1.238  0.00  0.00    +0.379 N 
ATOM     25  H   LIG    1        3.019  -8.343  -1.238  0.00  0.00    -0.086 HD
ATOM     26  H   LIG    1        1.684  -8.614  -2.141  0.00  0.00    -0.086 HD
BRANCH  24  27
ATOM     27  C   LIG    1        1.474  -9.256  -0.161  0.00  0.00    -0.086 C 
ATOM     28  C   LIG    1        1.956 -10.682  -0.459  0.00  0.00    -0.017 C 
ENDBRANCH  24  27
ENDBRANCH  23  24
ENDBRANCH  22  23
ENDBRANCH  21  22
ENDBRANCH  20  21
ENDBRANCH  17  20
ENDBRANCH  16  17
ENDBRANCH  15  16
ENDBRANCH   1  15
TORSDOF 17
