REMARK  Name = DB13268
REMARK                            x       y       z     vdW  Elec       q    Type
REMARK                         _______ _______ _______ _____ _____    ______ ____
ROOT
ATOM      1  C   LIG    1       -2.051   1.279  -0.028  0.00  0.00    +0.000 A 
ATOM      2  C   LIG    1       -2.747   0.079   0.203  0.00  0.00    +0.000 A 
ATOM      3  C   LIG    1       -2.050  -1.126   0.309  0.00  0.00    +0.000 A 
ATOM      4  C   LIG    1       -0.663  -1.151   0.183  0.00  0.00    +0.000 A 
ATOM      5  C   LIG    1        0.038   0.031  -0.056  0.00  0.00    +0.000 A 
ATOM      6  C   LIG    1       -0.652   1.239  -0.163  0.00  0.00    +0.000 A 
ENDROOT
BRANCH   1   9
ATOM      7  C   LIG    1       -3.439   4.822  -0.024  0.00  0.00    +0.000 C 
ATOM      8  C   LIG    1       -2.403   3.725   0.199  0.00  0.00    +0.000 C 
ATOM      9  N   LIG    1       -2.791   2.475  -0.129  0.00  0.00    +0.000 N 
ATOM     10  H   LIG    1       -3.760   2.352  -0.388  0.00  0.00    +0.000 HD
ATOM     11  O   LIG    1       -1.307   4.026   0.671  0.00  0.00    +0.000 OA
ENDBRANCH   1   9
BRANCH   2  12
ATOM     12  O   LIG    1       -4.114   0.056   0.332  0.00  0.00    +0.000 OA
ATOM     13  H   LIG    1       -4.457  -0.827   0.494  0.00  0.00    +0.000 HD
ENDBRANCH   2  12
BRANCH   5  14
ATOM     14 AS   LIG    1        1.943   0.005  -0.241  0.00  0.00    +0.000 As
ATOM     15  O   LIG    1        2.506  -1.565  -0.167  0.00  0.00    +0.000 OA
BRANCH  14  16
ATOM     16  O   LIG    1        2.646   0.903   1.013  0.00  0.00    +0.000 OA
ATOM     17  H   LIG    1        3.007   0.272   1.639  0.00  0.00    +0.000 HD
ENDBRANCH  14  16
BRANCH  14  18
ATOM     18  O   LIG    1        2.378   0.674  -1.736  0.00  0.00    +0.000 OA
ATOM     19  H   LIG    1        2.718  -0.043  -2.275  0.00  0.00    +0.000 HD
ENDBRANCH  14  18
ENDBRANCH   5  14
TORSDOF 5
