REMARK  Name = DB13262
REMARK                            x       y       z     vdW  Elec       q    Type
REMARK                         _______ _______ _______ _____ _____    ______ ____
ROOT
ATOM      1  C   LIG    1        3.393   1.181   0.132  0.00  0.00    +0.193 C 
ATOM      2  C   LIG    1        3.841   2.663   0.064  0.00  0.00    +0.033 C 
ATOM      3  C   LIG    1        3.454   3.321   1.410  0.00  0.00    +0.022 C 
ATOM      4  C   LIG    1        4.101   2.540   2.596  0.00  0.00    +0.085 C 
ATOM      5  N   LIG    1        4.911   1.378   2.167  0.00  0.00    -0.299 NA
ATOM      6  C   LIG    1        5.959   1.881   1.250  0.00  0.00    +0.085 C 
ATOM      7  C   LIG    1        5.387   2.636   0.008  0.00  0.00    +0.022 C 
ATOM      8  C   LIG    1        4.028   0.484   1.385  0.00  0.00    +0.129 C 
ENDROOT
BRANCH   1   9
ATOM      9  O   LIG    1        1.967   1.076   0.107  0.00  0.00    -0.460 OA
BRANCH   9  11
ATOM     10  C   LIG    1       -0.174   0.052  -0.171  0.00  0.00    +0.136 C 
ATOM     11  C   LIG    1        1.343  -0.077  -0.226  0.00  0.00    +0.304 C 
ATOM     12  O   LIG    1        1.886  -1.136  -0.541  0.00  0.00    -0.251 OA
ENDBRANCH   9  11
ENDBRANCH   1   9
TORSDOF 2
