REMARK  Name = DB13157
REMARK                            x       y       z     vdW  Elec       q    Type
REMARK                         _______ _______ _______ _____ _____    ______ ____
ROOT
ATOM      1  C   LIG    1       -2.123   1.519   0.158  0.00  0.00    +0.041 C 
ENDROOT
BRANCH   1   2
ATOM      2  C   LIG    1       -2.681   2.926   0.427  0.00  0.00    +0.232 C 
BRANCH   2   3
ATOM      3  O   LIG    1       -2.404   3.785  -0.672  0.00  0.00    -0.463 OA
BRANCH   3   4
ATOM      4  C   LIG    1       -2.772   5.082  -0.642  0.00  0.00    +0.331 C 
ATOM      5  O   LIG    1       -3.358   5.645   0.285  0.00  0.00    -0.249 OA
BRANCH   4   6
ATOM      6  C   LIG    1       -2.373   5.810  -1.926  0.00  0.00    +0.317 C 
BRANCH   6   7
ATOM      7  S   LIG    1       -2.823   7.648  -2.002  0.00  0.00    +0.090 S 
ATOM      8  O   LIG    1       -2.106   8.239  -0.867  0.00  0.00    -0.147 OA
ATOM      9  O   LIG    1       -4.285   7.662  -1.882  0.00  0.00    -0.147 OA
BRANCH   7  10
ATOM     10  O   LIG    1       -2.320   8.060  -3.317  0.00  0.00    -0.253 OA
ATOM     11  H   LIG    1       -2.842   7.630  -4.012  0.00  0.00    +0.244 HD
ENDBRANCH   7  10
ENDBRANCH   6   7
ENDBRANCH   4   6
ENDBRANCH   3   4
ENDBRANCH   2   3
ENDBRANCH   1   2
BRANCH   1  12
ATOM     12  C   LIG    1       -0.587   1.474   0.052  0.00  0.00    +0.003 C 
BRANCH  12  13
ATOM     13  C   LIG    1       -0.045   0.055  -0.208  0.00  0.00    +0.000 C 
BRANCH  13  14
ATOM     14  C   LIG    1        1.493  -0.046  -0.223  0.00  0.00    +0.000 C 
BRANCH  14  15
ATOM     15  C   LIG    1        2.171   0.721  -1.376  0.00  0.00    +0.000 C 
BRANCH  15  16
ATOM     16  C   LIG    1        3.695   0.508  -1.422  0.00  0.00    -0.000 C 
BRANCH  16  17
ATOM     17  C   LIG    1        4.376   1.290  -2.560  0.00  0.00    -0.000 C 
BRANCH  17  18
ATOM     18  C   LIG    1        5.899   1.075  -2.607  0.00  0.00    -0.000 C 
BRANCH  18  19
ATOM     19  C   LIG    1        6.582   1.861  -3.741  0.00  0.00    -0.000 C 
BRANCH  19  20
ATOM     20  C   LIG    1        8.106   1.652  -3.783  0.00  0.00    -0.003 C 
ATOM     21  C   LIG    1        8.787   2.439  -4.911  0.00  0.00    +0.004 C 
ENDBRANCH  19  20
ENDBRANCH  18  19
ENDBRANCH  17  18
ENDBRANCH  16  17
ENDBRANCH  15  16
ENDBRANCH  14  15
ENDBRANCH  13  14
ENDBRANCH  12  13
ENDBRANCH   1  12
TORSDOF 15
