REMARK  Name = DB13026
REMARK                            x       y       z     vdW  Elec       q    Type
REMARK                         _______ _______ _______ _____ _____    ______ ____
ROOT
ATOM      1  C   LIG    1       -0.528   1.637   2.479  0.00  0.00    +0.086 C 
ATOM      2  C   LIG    1       -0.711   2.135   1.058  0.00  0.00    +0.108 A 
ATOM      3  N   LIG    1       -0.468   1.367  -0.068  0.00  0.00    -0.307 N 
ATOM      4  C   LIG    1       -0.750   2.217  -1.131  0.00  0.00    +0.211 A 
ATOM      5  C   LIG    1       -1.148   3.408  -0.536  0.00  0.00    +0.164 A 
ATOM      6  N   LIG    1       -1.121   3.349   0.779  0.00  0.00    -0.239 NA
ENDROOT
BRANCH   4   7
ATOM      7  N   LIG    1       -0.638   1.888  -2.526  0.00  0.00    +0.025 N 
ATOM      8  O   LIG    1       -0.918   2.781  -3.319  0.00  0.00    -0.128 OA
BRANCH   7   9
ATOM      9  O   LIG    1       -0.277   0.769  -2.869  0.00  0.00    -0.395 OA
ATOM     10  H   LIG    1       -0.075   0.123  -2.222  0.00  0.00    +0.329 HD
ENDBRANCH   7   9
ENDBRANCH   4   7
BRANCH   3  11
ATOM     11  C   LIG    1        0.020  -0.020  -0.065  0.00  0.00    +0.157 C 
BRANCH  11  12
ATOM     12  C   LIG    1        1.564  -0.097   0.013  0.00  0.00    +0.149 C 
BRANCH  12  13
ATOM     13  O   LIG    1        2.157   0.529  -1.111  0.00  0.00    -0.389 OA
ATOM     14  H   LIG    1        1.841   1.435  -1.161  0.00  0.00    +0.210 HD
ENDBRANCH  12  13
BRANCH  12  15
ATOM     15  C   LIG    1        2.061  -1.552   0.100  0.00  0.00    +0.141 C 
ATOM     16 CL   LIG    1        3.821  -1.628   0.391  0.00  0.00    -0.123 Cl
ENDBRANCH  12  15
ENDBRANCH  11  12
ENDBRANCH   3  11
TORSDOF 6
