REMARK  Name = DB13872
REMARK                            x       y       z     vdW  Elec       q    Type
REMARK                         _______ _______ _______ _____ _____    ______ ____
ROOT
ATOM      1  C   LIG    1        1.514   0.047   0.037  0.00  0.00    +0.079 C 
ATOM      2  C   LIG    1        2.160  -1.266  -0.249  0.00  0.00    +0.023 A 
ATOM      3  C   LIG    1        1.513  -2.133  -1.149  0.00  0.00    +0.032 A 
ATOM      4  C   LIG    1        2.019  -3.394  -1.441  0.00  0.00    +0.042 A 
ATOM      5  C   LIG    1        3.186  -3.823  -0.829  0.00  0.00    +0.022 A 
ATOM      6  C   LIG    1        3.846  -2.982   0.059  0.00  0.00    +0.025 A 
ATOM      7 CL   LIG    1        1.191  -4.426  -2.549  0.00  0.00    -0.084 Cl
ATOM      8  C   LIG    1        3.392  -1.680   0.344  0.00  0.00    +0.045 A 
ATOM      9  N   LIG    1        4.058  -0.888   1.331  0.00  0.00    -0.270 N 
ATOM     10  C   LIG    1        4.741  -1.576   2.443  0.00  0.00    +0.138 C 
ATOM     11  C   LIG    1        4.308   0.460   1.262  0.00  0.00    +0.271 C 
ATOM     12  O   LIG    1        5.031   1.087   2.043  0.00  0.00    -0.270 OA
ATOM     13  C   LIG    1        3.587   1.224   0.120  0.00  0.00    +0.320 C 
ATOM     14  N   LIG    1        2.133   1.154   0.221  0.00  0.00    -0.243 NA
ENDROOT
BRANCH   1  17
ATOM     15 CL   LIG    1       -0.128   1.219  -2.361  0.00  0.00    -0.083 Cl
ATOM     16  C   LIG    1       -0.777   0.567  -0.891  0.00  0.00    +0.050 A 
ATOM     17  C   LIG    1        0.045   0.060   0.136  0.00  0.00    +0.019 A 
ATOM     18  C   LIG    1       -0.546  -0.470   1.290  0.00  0.00    +0.011 A 
ATOM     19  C   LIG    1       -1.934  -0.490   1.429  0.00  0.00    +0.001 A 
ATOM     20  C   LIG    1       -2.743   0.017   0.414  0.00  0.00    +0.001 A 
ATOM     21  C   LIG    1       -2.165   0.542  -0.741  0.00  0.00    +0.020 A 
ENDBRANCH   1  17
BRANCH  13  22
ATOM     22  O   LIG    1        4.135   0.845  -1.139  0.00  0.00    -0.364 OA
ATOM     23  H   LIG    1        5.034   1.179  -1.192  0.00  0.00    +0.212 HD
ENDBRANCH  13  22
TORSDOF 2
