REMARK  Name = DB13138
REMARK                            x       y       z     vdW  Elec       q    Type
REMARK                         _______ _______ _______ _____ _____    ______ ____
ROOT
ATOM      1  C   LIG    1        3.376  -5.184   0.418  0.00  0.00    +0.023 A 
ATOM      2  C   LIG    1        2.902  -6.193   1.293  0.00  0.00    +0.093 A 
ATOM      3  C   LIG    1        3.588  -7.418   1.331  0.00  0.00    +0.117 A 
ATOM      4  N   LIG    1        4.666  -7.667   0.562  0.00  0.00    -0.223 NA
ATOM      5  C   LIG    1        5.123  -6.741  -0.316  0.00  0.00    +0.141 A 
ATOM      6  C   LIG    1        4.502  -5.467  -0.406  0.00  0.00    +0.101 A 
ENDROOT
BRANCH   1  10
ATOM      7  C   LIG    1        1.492  -1.307   0.264  0.00  0.00    +0.121 A 
ATOM      8  C   LIG    1        0.823  -2.440  -0.225  0.00  0.00    +0.046 A 
ATOM      9  C   LIG    1        1.432  -3.691  -0.173  0.00  0.00    +0.012 A 
ATOM     10  C   LIG    1        2.708  -3.837   0.378  0.00  0.00    -0.015 A 
ATOM     11  C   LIG    1        3.363  -2.710   0.884  0.00  0.00    +0.012 A 
ATOM     12  C   LIG    1        2.762  -1.456   0.820  0.00  0.00    +0.046 A 
BRANCH   7  13
ATOM     13  O   LIG    1        0.983  -0.022   0.229  0.00  0.00    -0.489 OA
BRANCH  13  14
ATOM     14  C   LIG    1       -0.332   0.197  -0.280  0.00  0.00    +0.270 C 
BRANCH  14  15
ATOM     15  C   LIG    1       -0.599   1.704  -0.373  0.00  0.00    +0.273 C 
BRANCH  15  16
ATOM     16  O   LIG    1       -0.540   2.314   0.909  0.00  0.00    -0.460 OA
BRANCH  16  17
ATOM     17  C   LIG    1       -0.791   3.639   1.061  0.00  0.00    +0.327 C 
ATOM     18  O   LIG    1       -1.174   4.390   0.159  0.00  0.00    -0.249 OA
BRANCH  17  19
ATOM     19  C   LIG    1       -0.579   4.092   2.498  0.00  0.00    +0.179 C 
ATOM     20  C   LIG    1       -0.935   5.577   2.731  0.00  0.00    +0.040 C 
BRANCH  19  22
ATOM     21  C   LIG    1        1.372   3.141   3.747  0.00  0.00    +0.199 C 
ATOM     22  N   LIG    1        0.852   3.886   2.756  0.00  0.00    -0.304 N 
ATOM     23  H   LIG    1        1.476   4.387   2.140  0.00  0.00    +0.149 HD
ATOM     24  O   LIG    1        0.684   2.535   4.575  0.00  0.00    -0.278 OA
BRANCH  21  26
ATOM     25  C   LIG    1        3.418   1.849   2.920  0.00  0.00    -0.005 C 
ATOM     26  C   LIG    1        2.920   3.056   3.743  0.00  0.00    +0.010 C 
BRANCH  26  27
ATOM     27  N   LIG    1        3.385   2.966   5.171  0.00  0.00    +0.385 N 
ATOM     28  H   LIG    1        2.934   2.176   5.612  0.00  0.00    -0.089 HD
ATOM     29  H   LIG    1        4.387   2.836   5.185  0.00  0.00    -0.089 HD
ATOM     30  H   LIG    1        3.142   3.819   5.655  0.00  0.00    -0.089 HD
ENDBRANCH  26  27
ENDBRANCH  21  26
ENDBRANCH  19  22
ENDBRANCH  17  19
ENDBRANCH  16  17
ENDBRANCH  15  16
ENDBRANCH  14  15
ENDBRANCH  13  14
ENDBRANCH   7  13
ENDBRANCH   1  10
BRANCH   5  31
ATOM     31  N   LIG    1        6.244  -7.197  -1.058  0.00  0.00    -0.314 N 
ATOM     32  C   LIG    1        6.944  -8.473  -0.847  0.00  0.00    +0.106 C 
ATOM     33  C   LIG    1        8.189  -8.493  -1.727  0.00  0.00    +0.020 C 
ATOM     34  C   LIG    1        7.737  -7.685  -2.920  0.00  0.00    +0.020 C 
ATOM     35  C   LIG    1        6.830  -6.634  -2.282  0.00  0.00    +0.106 C 
ENDBRANCH   5  31
BRANCH   2  36
ATOM     36  C   LIG    1        1.747  -5.961   2.170  0.00  0.00    +0.102 C 
ATOM     37  N   LIG    1        0.838  -5.777   2.863  0.00  0.00    -0.191 NA
ENDBRANCH   2  36
BRANCH   6  38
ATOM     38  C   LIG    1        5.000  -4.435  -1.324  0.00  0.00    +0.103 C 
ATOM     39  N   LIG    1        5.388  -3.618  -2.046  0.00  0.00    -0.191 NA
ENDBRANCH   6  38
BRANCH   3  40
ATOM     40  S   LIG    1        3.152  -8.749   2.424  0.00  0.00    -0.098 S 
BRANCH  40  41
ATOM     41  C   LIG    1        4.525  -8.832   3.617  0.00  0.00    +0.131 C 
BRANCH  41  42
ATOM     42  C   LIG    1        4.302  -7.976   4.850  0.00  0.00    +0.059 A 
ATOM     43  N   LIG    1        4.048  -6.692   4.661  0.00  0.00    -0.243 NA
ATOM     44  C   LIG    1        3.796  -6.042   5.774  0.00  0.00    +0.109 A 
ATOM     45  S   LIG    1        3.955  -7.027   7.205  0.00  0.00    -0.075 S 
ATOM     46  C   LIG    1        4.327  -8.378   6.182  0.00  0.00    +0.071 A 
BRANCH  44  47
ATOM     47  C   LIG    1        3.391  -4.593   5.823  0.00  0.00    +0.007 A 
ATOM     48  C   LIG    1        2.955  -3.996   7.014  0.00  0.00    +0.012 A 
ATOM     49  C   LIG    1        2.542  -2.667   7.032  0.00  0.00    +0.020 A 
ATOM     50  C   LIG    1        2.561  -1.921   5.856  0.00  0.00    +0.041 A 
ATOM     51 CL   LIG    1        2.021  -0.283   5.875  0.00  0.00    -0.084 Cl
ATOM     52  C   LIG    1        3.002  -2.493   4.666  0.00  0.00    +0.020 A 
ATOM     53  C   LIG    1        3.416  -3.822   4.651  0.00  0.00    +0.012 A 
ENDBRANCH  44  47
ENDBRANCH  41  42
ENDBRANCH  40  41
ENDBRANCH   3  40
TORSDOF 17
