REMARK  Name = DB13680
REMARK                            x       y       z     vdW  Elec       q    Type
REMARK                         _______ _______ _______ _____ _____    ______ ____
ROOT
ATOM      1  C   LIG    1       -4.264   4.425  -0.000  0.00  0.00    +0.001 A 
ATOM      2  C   LIG    1       -3.418   5.532  -0.000  0.00  0.00    +0.001 A 
ATOM      3  C   LIG    1       -2.036   5.351  -0.000  0.00  0.00    +0.008 A 
ATOM      4  C   LIG    1       -1.499   4.061  -0.000  0.00  0.00    -0.014 A 
ATOM      5  C   LIG    1       -0.044   3.861   0.000  0.00  0.00    +0.011 C 
ATOM      6  C   LIG    1        0.500   2.629   0.000  0.00  0.00    +0.034 C 
ATOM      7  C   LIG    1       -0.273   1.389  -0.000  0.00  0.00    +0.129 C 
ATOM      8  N   LIG    1        0.153   0.178  -0.000  0.00  0.00    -0.175 NA
ATOM      9  C   LIG    1       -1.766   1.529  -0.000  0.00  0.00    +0.213 C 
ATOM     10  O   LIG    1       -2.515   0.545  -0.000  0.00  0.00    -0.285 OA
ATOM     11  C   LIG    1       -2.342   2.931  -0.000  0.00  0.00    +0.031 A 
ATOM     12  C   LIG    1       -3.731   3.136  -0.000  0.00  0.00    +0.012 A 
ENDROOT
BRANCH   8  13
ATOM     13  N   LIG    1        1.493   0.005   0.000  0.00  0.00    -0.190 N 
ATOM     14  H   LIG    1        2.044   0.851   0.000  0.00  0.00    +0.179 HD
ATOM     15  C   LIG    1        2.059  -1.214   0.000  0.00  0.00    +0.317 C 
ATOM     16  O   LIG    1        1.452  -2.285  -0.000  0.00  0.00    -0.251 OA
ATOM     17  N   LIG    1        3.391  -1.150   0.000  0.00  0.00    -0.312 N 
ATOM     18  H   LIG    1        3.864  -0.258   0.000  0.00  0.00    +0.147 HD
ATOM     19  H   LIG    1        3.936  -2.001   0.000  0.00  0.00    +0.147 HD
ENDBRANCH   8  13
TORSDOF 1
