REMARK  Name = DB13219
REMARK                            x       y       z     vdW  Elec       q    Type
REMARK                         _______ _______ _______ _____ _____    ______ ____
ROOT
ATOM      1  C   LIG    1        1.298  -0.143   0.124  0.00  0.00    +0.377 C 
ENDROOT
BRANCH   1   2
ATOM      2  C   LIG    1       -0.197   0.052   0.410  0.00  0.00    +0.173 C 
BRANCH   2   4
ATOM      3  C   LIG    1       -0.637   2.102  -0.822  0.00  0.00    +0.104 C 
ATOM      4  N   LIG    1       -0.579   1.468   0.495  0.00  0.00    -0.302 NA
ATOM      5  C   LIG    1       -1.885   1.588   1.138  0.00  0.00    +0.104 C 
ENDBRANCH   2   4
ENDBRANCH   1   2
BRANCH   1   6
ATOM      6  O   LIG    1        1.998   0.393   1.211  0.00  0.00    -0.452 OA
BRANCH   6   7
ATOM      7  C   LIG    1        3.368   0.570   1.138  0.00  0.00    +0.125 A 
ATOM      8  C   LIG    1        4.164   0.191   0.043  0.00  0.00    +0.046 A 
ATOM      9  C   LIG    1        5.539   0.407   0.067  0.00  0.00    +0.004 A 
ATOM     10  C   LIG    1        6.126   1.001   1.182  0.00  0.00    +0.000 A 
ATOM     11  C   LIG    1        5.349   1.379   2.273  0.00  0.00    +0.004 A 
ATOM     12  C   LIG    1        3.974   1.162   2.248  0.00  0.00    +0.046 A 
ENDBRANCH   6   7
ENDBRANCH   1   6
BRANCH   1  13
ATOM     13  O   LIG    1        1.524  -1.524   0.025  0.00  0.00    -0.452 OA
BRANCH  13  14
ATOM     14  C   LIG    1        1.534  -2.150  -1.208  0.00  0.00    +0.125 A 
ATOM     15  C   LIG    1        1.015  -1.591  -2.388  0.00  0.00    +0.046 A 
ATOM     16  C   LIG    1        1.063  -2.305  -3.582  0.00  0.00    +0.004 A 
ATOM     17  C   LIG    1        1.622  -3.580  -3.603  0.00  0.00    +0.000 A 
ATOM     18  C   LIG    1        2.131  -4.149  -2.439  0.00  0.00    +0.004 A 
ATOM     19  C   LIG    1        2.082  -3.434  -1.245  0.00  0.00    +0.046 A 
ENDBRANCH  13  14
ENDBRANCH   1  13
TORSDOF 6
