REMARK  Name = DB13851
REMARK                            x       y       z     vdW  Elec       q    Type
REMARK                         _______ _______ _______ _____ _____    ______ ____
ROOT
ATOM      1  C   LIG    1       -1.338   4.424  -3.043  0.00  0.00    +0.068 C 
ATOM      2  C   LIG    1       -1.750   3.834  -1.670  0.00  0.00    +0.203 C 
ATOM      3  O   LIG    1       -2.712   2.775  -1.798  0.00  0.00    -0.199 OA
ATOM      4  O   LIG    1       -2.167   1.473  -2.293  0.00  0.00    -0.220 OA
ATOM      5  C   LIG    1       -0.745   1.436  -2.490  0.00  0.00    +0.161 C 
ATOM      6  C   LIG    1       -0.109   2.111  -1.237  0.00  0.00    +0.292 C 
ATOM      7  O   LIG    1       -0.470   1.404  -0.075  0.00  0.00    -0.319 OA
ATOM      8  C   LIG    1       -0.009   0.079   0.018  0.00  0.00    +0.256 C 
ATOM      9  C   LIG    1       -0.527  -0.760  -1.170  0.00  0.00    +0.048 C 
ATOM     10  C   LIG    1       -0.079  -2.235  -1.118  0.00  0.00    +0.013 C 
ATOM     11  C   LIG    1       -0.257  -0.050  -2.531  0.00  0.00    +0.037 C 
ATOM     12  C   LIG    1        1.228  -0.153  -3.008  0.00  0.00    +0.007 C 
ATOM     13  C   LIG    1        1.509   0.606  -4.316  0.00  0.00    +0.004 C 
ATOM     14  C   LIG    1        1.065   2.084  -4.229  0.00  0.00    -0.008 C 
ATOM     15  C   LIG    1        1.469   2.845  -5.509  0.00  0.00    +0.008 C 
ATOM     16  C   LIG    1       -0.459   2.097  -3.894  0.00  0.00    +0.032 C 
ATOM     17  C   LIG    1       -2.385   4.866  -0.720  0.00  0.00    +0.077 C 
ATOM     18  O   LIG    1       -0.552   3.423  -1.006  0.00  0.00    -0.314 OA
ATOM     19  C   LIG    1       -1.223   3.418  -4.195  0.00  0.00    +0.012 C 
ENDROOT
BRANCH   8  20
ATOM     20  O   LIG    1        1.386  -0.006   0.073  0.00  0.00    -0.351 OA
BRANCH  20  21
ATOM     21  C   LIG    1        1.983   0.562   1.232  0.00  0.00    +0.159 C 
ATOM     22  C   LIG    1        3.505   0.475   1.087  0.00  0.00    +0.034 C 
ENDBRANCH  20  21
ENDBRANCH   8  20
TORSDOF 2
