REMARK  Name = DB13711
REMARK                            x       y       z     vdW  Elec       q    Type
REMARK                         _______ _______ _______ _____ _____    ______ ____
ROOT
ATOM      1  O   LIG    1        2.154   0.580  -1.112  0.00  0.00    -0.451 OA
ATOM      2  C   LIG    1        2.987   1.616  -0.861  0.00  0.00    +0.342 C 
ATOM      3  C   LIG    1        2.995   1.845   0.604  0.00  0.00    +0.094 A 
ATOM      4  C   LIG    1        3.667   2.783   1.396  0.00  0.00    +0.085 A 
ATOM      5  C   LIG    1        3.484   2.756   2.788  0.00  0.00    +0.187 A 
ATOM      6  C   LIG    1        2.662   1.777   3.375  0.00  0.00    +0.206 A 
ATOM      7  C   LIG    1        1.978   0.853   2.561  0.00  0.00    +0.173 A 
ATOM      8  C   LIG    1        2.159   0.905   1.178  0.00  0.00    +0.056 A 
ATOM      9  O   LIG    1        3.586   2.209  -1.757  0.00  0.00    -0.245 OA
ATOM     10  C   LIG    1        1.572   0.065   0.077  0.00  0.00    +0.233 C 
ENDROOT
BRANCH  10  11
ATOM     11  C   LIG    1        0.014   0.060  -0.007  0.00  0.00    +0.136 C 
ATOM     12  C   LIG    1       -0.497  -0.834  -1.154  0.00  0.00    +0.022 A 
ATOM     13  C   LIG    1       -0.273  -2.228  -1.138  0.00  0.00    +0.170 A 
ATOM     14  C   LIG    1       -0.649  -2.985  -2.240  0.00  0.00    +0.208 A 
ATOM     15  C   LIG    1       -1.224  -2.412  -3.332  0.00  0.00    +0.170 A 
ATOM     16  C   LIG    1       -1.464  -1.048  -3.395  0.00  0.00    +0.053 A 
ATOM     17  O   LIG    1       -1.460  -3.364  -4.272  0.00  0.00    -0.452 OA
ATOM     18  C   LIG    1       -1.204  -4.589  -3.640  0.00  0.00    +0.467 C 
ATOM     19  O   LIG    1       -0.501  -4.319  -2.457  0.00  0.00    -0.449 OA
ATOM     20  C   LIG    1       -1.109  -0.246  -2.297  0.00  0.00    -0.034 A 
ATOM     21  C   LIG    1       -1.413   1.250  -2.326  0.00  0.00    +0.051 C 
ATOM     22  C   LIG    1       -0.653   2.046  -1.241  0.00  0.00    +0.089 C 
ATOM     23  N   LIG    1       -0.652   1.379   0.066  0.00  0.00    -0.295 NA
ATOM     24  C   LIG    1       -2.004   1.280   0.622  0.00  0.00    +0.105 C 
BRANCH  13  25
ATOM     25  O   LIG    1        0.332  -2.860  -0.080  0.00  0.00    -0.491 OA
ATOM     26  C   LIG    1       -0.573  -3.332   0.909  0.00  0.00    +0.277 C 
ENDBRANCH  13  25
ENDBRANCH  10  11
BRANCH   4  27
ATOM     27  N   LIG    1        4.513   3.741   0.827  0.00  0.00    -0.354 N 
ATOM     28  H   LIG    1        4.653   3.747  -0.173  0.00  0.00    +0.142 HD
ATOM     29  H   LIG    1        4.994   4.396   1.427  0.00  0.00    +0.142 HD
ENDBRANCH   4  27
BRANCH   7  30
ATOM     30  O   LIG    1        1.156  -0.162   3.011  0.00  0.00    -0.488 OA
BRANCH  30  31
ATOM     31  C   LIG    1        0.327   0.070   4.145  0.00  0.00    +0.226 C 
ATOM     32  C   LIG    1       -0.852  -0.907   4.091  0.00  0.00    +0.048 C 
ENDBRANCH  30  31
ENDBRANCH   7  30
BRANCH   6  33
ATOM     33  O   LIG    1        2.546   1.735   4.743  0.00  0.00    -0.485 OA
BRANCH  33  34
ATOM     34  C   LIG    1        3.590   1.026   5.399  0.00  0.00    +0.226 C 
ATOM     35  C   LIG    1        3.352   1.089   6.910  0.00  0.00    +0.048 C 
ENDBRANCH  33  34
ENDBRANCH   6  33
BRANCH   5  36
ATOM     36  O   LIG    1        4.150   3.662   3.582  0.00  0.00    -0.487 OA
BRANCH  36  37
ATOM     37  C   LIG    1        3.343   4.719   4.089  0.00  0.00    +0.226 C 
ATOM     38  C   LIG    1        4.178   5.543   5.072  0.00  0.00    +0.048 C 
ENDBRANCH  36  37
ENDBRANCH   5  36
TORSDOF 9
