REMARK  Name = DB13947
REMARK                            x       y       z     vdW  Elec       q    Type
REMARK                         _______ _______ _______ _____ _____    ______ ____
ROOT
ATOM      1  C   LIG    1        1.343   0.249   0.209  0.00  0.00    +0.183 C 
ATOM      2  C   LIG    1        1.881   0.959   1.477  0.00  0.00    +0.045 C 
ATOM      3  C   LIG    1        3.058   0.096   1.976  0.00  0.00    +0.008 C 
ATOM      4  C   LIG    1        3.226  -0.974   0.887  0.00  0.00    +0.002 C 
ATOM      5  C   LIG    1        3.978  -2.297   1.199  0.00  0.00    -0.003 C 
ATOM      6  C   LIG    1        4.089  -3.153  -0.107  0.00  0.00    +0.002 C 
ATOM      7  C   LIG    1        2.696  -3.324  -0.801  0.00  0.00    +0.005 C 
ATOM      8  C   LIG    1        1.951  -1.980  -0.997  0.00  0.00    +0.011 C 
ATOM      9  C   LIG    1        4.870  -4.511   0.101  0.00  0.00    -0.007 C 
ATOM     10  C   LIG    1        5.216  -5.122  -1.296  0.00  0.00    +0.017 C 
ATOM     11  C   LIG    1        6.325  -6.198  -1.311  0.00  0.00    +0.058 C 
ATOM     12  C   LIG    1        7.599  -5.720  -0.604  0.00  0.00    +0.059 C 
ATOM     13  C   LIG    1        7.383  -4.770   0.472  0.00  0.00    +0.024 C 
ATOM     14  N   LIG    1        8.706  -6.226  -1.003  0.00  0.00    -0.185 NA
ATOM     15  C   LIG    1        4.063  -5.543   0.934  0.00  0.00    +0.016 C 
ATOM     16  C   LIG    1        6.201  -4.233   0.852  0.00  0.00    -0.062 C 
ATOM     17  C   LIG    1        6.097  -3.347   2.097  0.00  0.00    +0.031 C 
ATOM     18  C   LIG    1        5.392  -2.033   1.745  0.00  0.00    +0.008 C 
ATOM     19  C   LIG    1        1.799  -1.224   0.345  0.00  0.00    +0.008 C 
ATOM     20  C   LIG    1        0.871  -2.001   1.334  0.00  0.00    +0.015 C 
ENDROOT
BRANCH  14  21
ATOM     21  N   LIG    1        9.832  -5.806  -0.381  0.00  0.00    -0.204 N 
ATOM     22  H   LIG    1        9.695  -5.119   0.347  0.00  0.00    +0.177 HD
ATOM     23  C   LIG    1       11.067  -6.256  -0.698  0.00  0.00    +0.273 C 
ATOM     24  O   LIG    1       11.246  -7.107  -1.577  0.00  0.00    -0.270 OA
BRANCH  23  25
ATOM     25  C   LIG    1       12.291  -5.689   0.116  0.00  0.00    +0.194 C 
BRANCH  25  26
ATOM     26  C   LIG    1       13.568  -5.648  -0.777  0.00  0.00    -0.003 A 
ATOM     27  C   LIG    1       14.129  -4.431  -1.204  0.00  0.00    +0.007 A 
ATOM     28  C   LIG    1       15.272  -4.408  -1.999  0.00  0.00    +0.000 A 
ATOM     29  C   LIG    1       15.870  -5.604  -2.382  0.00  0.00    +0.000 A 
ATOM     30  C   LIG    1       15.333  -6.822  -1.978  0.00  0.00    +0.000 A 
ATOM     31  C   LIG    1       14.191  -6.842  -1.184  0.00  0.00    +0.007 A 
ENDBRANCH  25  26
BRANCH  25  32
ATOM     32  C   LIG    1       12.569  -6.544   1.391  0.00  0.00    -0.003 A 
ATOM     33  C   LIG    1       13.092  -5.933   2.544  0.00  0.00    +0.007 A 
ATOM     34  C   LIG    1       13.375  -6.676   3.686  0.00  0.00    +0.000 A 
ATOM     35  C   LIG    1       13.150  -8.048   3.690  0.00  0.00    +0.000 A 
ATOM     36  C   LIG    1       12.650  -8.682   2.558  0.00  0.00    +0.000 A 
ATOM     37  C   LIG    1       12.368  -7.937   1.416  0.00  0.00    +0.007 A 
ENDBRANCH  25  32
BRANCH  25  38
ATOM     38  O   LIG    1       11.917  -4.365   0.517  0.00  0.00    -0.371 OA
ATOM     39  H   LIG    1       12.652  -3.978   0.999  0.00  0.00    +0.212 HD
ENDBRANCH  25  38
ENDBRANCH  23  25
ENDBRANCH  14  21
BRANCH   1  40
ATOM     40  O   LIG    1       -0.071   0.373   0.050  0.00  0.00    -0.461 OA
BRANCH  40  41
ATOM     41  C   LIG    1       -0.638   1.523  -0.381  0.00  0.00    +0.307 C 
ATOM     42  O   LIG    1       -0.042   2.551  -0.708  0.00  0.00    -0.251 OA
BRANCH  41  43
ATOM     43  C   LIG    1       -2.166   1.446  -0.410  0.00  0.00    +0.120 C 
BRANCH  43  44
ATOM     44  C   LIG    1       -2.834   2.023   0.857  0.00  0.00    +0.011 C 
BRANCH  44  45
ATOM     45  C   LIG    1       -2.540   1.236   2.151  0.00  0.00    +0.001 C 
BRANCH  45  46
ATOM     46  C   LIG    1       -3.250   1.820   3.387  0.00  0.00    -0.000 C 
BRANCH  46  48
ATOM     47  C   LIG    1       -1.565   1.003   5.170  0.00  0.00    +0.004 C 
ATOM     48  C   LIG    1       -3.023   1.019   4.683  0.00  0.00    -0.003 C 
ENDBRANCH  46  48
ENDBRANCH  45  46
ENDBRANCH  44  45
ENDBRANCH  43  44
ENDBRANCH  41  43
ENDBRANCH  40  41
ENDBRANCH   1  40
TORSDOF 12
