REMARK  Name = DB13121
REMARK                            x       y       z     vdW  Elec       q    Type
REMARK                         _______ _______ _______ _____ _____    ______ ____
ROOT
ATOM      1  C   LIG    1        1.583   0.041   0.020  0.00  0.00    +0.152 C 
ATOM      2  O   LIG    1        2.014   0.691  -1.180  0.00  0.00    -0.371 OA
ATOM      3  C   LIG    1        3.427   0.845  -1.267  0.00  0.00    +0.194 C 
ATOM      4  C   LIG    1        4.060  -0.552  -1.410  0.00  0.00    +0.171 C 
ATOM      5  C   LIG    1        3.696  -1.413  -0.177  0.00  0.00    +0.176 C 
ATOM      6  C   LIG    1        2.163  -1.403   0.060  0.00  0.00    +0.174 C 
ENDROOT
BRANCH   4   7
ATOM      7  O   LIG    1        5.461  -0.438  -1.575  0.00  0.00    -0.387 OA
ATOM      8  H   LIG    1        5.806  -1.296  -1.831  0.00  0.00    +0.210 HD
ENDBRANCH   4   7
BRANCH   5   9
ATOM      9  O   LIG    1        4.194  -2.734  -0.308  0.00  0.00    -0.387 OA
ATOM     10  H   LIG    1        3.725  -3.297   0.312  0.00  0.00    +0.210 HD
ENDBRANCH   5   9
BRANCH   6  11
ATOM     11  O   LIG    1        1.836  -2.058   1.275  0.00  0.00    -0.387 OA
ATOM     12  H   LIG    1        2.269  -1.598   1.998  0.00  0.00    +0.210 HD
ENDBRANCH   6  11
BRANCH   1  13
ATOM     13  C   LIG    1        0.035   0.053   0.039  0.00  0.00    +0.065 C 
BRANCH  13  15
ATOM     14  C   LIG    1       -2.140   1.404  -0.035  0.00  0.00    +0.037 C 
ATOM     15  C   LIG    1       -0.605   1.459  -0.001  0.00  0.00    +0.114 C 
BRANCH  15  16
ATOM     16  O   LIG    1       -0.210   2.212   1.129  0.00  0.00    -0.392 OA
ATOM     17  H   LIG    1        0.747   2.283   1.128  0.00  0.00    +0.210 HD
ENDBRANCH  15  16
ENDBRANCH  13  15
ENDBRANCH   1  13
TORSDOF 6
