REMARK  Name = DB13060
REMARK                            x       y       z     vdW  Elec       q    Type
REMARK                         _______ _______ _______ _____ _____    ______ ____
ROOT
ATOM      1  C   LIG    1        1.581  -0.115   0.440  0.00  0.00    +0.076 A 
ATOM      2  C   LIG    1        2.178  -1.353   0.727  0.00  0.00    +0.145 A 
ATOM      3  C   LIG    1        3.580  -1.508   0.702  0.00  0.00    -0.001 A 
ATOM      4  C   LIG    1        4.232  -2.853   1.044  0.00  0.00    +0.039 C 
ATOM      5  C   LIG    1        4.977  -3.546  -0.111  0.00  0.00    +0.003 C 
ATOM      6  C   LIG    1        6.386  -3.009  -0.396  0.00  0.00    -0.015 C 
ATOM      7  C   LIG    1        6.457  -1.523  -0.805  0.00  0.00    -0.064 C 
ATOM      8  C   LIG    1        5.910  -0.522   0.249  0.00  0.00    +0.020 C 
ATOM      9  C   LIG    1        4.386  -0.408   0.332  0.00  0.00    -0.042 A 
ATOM     10  C   LIG    1        3.773   0.808   0.015  0.00  0.00    +0.006 A 
ATOM     11  C   LIG    1        2.393   0.957   0.068  0.00  0.00    +0.027 A 
ENDROOT
BRANCH   7  12
ATOM     12  N   LIG    1        7.920  -1.201  -1.228  0.00  0.00    +0.383 N 
ATOM     13  H   LIG    1        8.257  -1.999  -1.749  0.00  0.00    -0.081 HD
ATOM     14  C   LIG    1        8.008   0.005  -2.199  0.00  0.00    -0.063 C 
ATOM     15  C   LIG    1        9.484   0.200  -2.635  0.00  0.00    +0.066 C 
ATOM     16  N   LIG    1       10.395   0.385  -1.496  0.00  0.00    -0.304 NA
ATOM     17  C   LIG    1       10.322  -0.795  -0.623  0.00  0.00    +0.066 C 
ATOM     18  C   LIG    1        8.902  -0.998  -0.045  0.00  0.00    -0.063 C 
BRANCH  16  19
ATOM     19  C   LIG    1       10.241   1.699  -0.850  0.00  0.00    +0.112 C 
BRANCH  19  20
ATOM     20  C   LIG    1       11.293   2.053   0.223  0.00  0.00    +0.171 C 
BRANCH  20  21
ATOM     21  O   LIG    1       11.052   1.404   1.455  0.00  0.00    -0.394 OA
ATOM     22  H   LIG    1       11.740   1.660   2.074  0.00  0.00    +0.209 HD
ENDBRANCH  20  21
ENDBRANCH  19  20
ENDBRANCH  16  19
ENDBRANCH   7  12
BRANCH   1  23
ATOM     23  N   LIG    1        0.180   0.010   0.502  0.00  0.00    -0.281 N 
ATOM     24  H   LIG    1       -0.322  -0.824   0.235  0.00  0.00    +0.155 HD
BRANCH  23  27
ATOM     25  C   LIG    1       -0.933   3.266   1.629  0.00  0.00    +0.147 A 
ATOM     26  N   LIG    1       -0.097   2.243   1.303  0.00  0.00    -0.198 NA
ATOM     27  C   LIG    1       -0.647   1.100   0.813  0.00  0.00    +0.221 A 
ATOM     28  N   LIG    1       -1.977   0.899   0.631  0.00  0.00    -0.221 NA
ATOM     29  C   LIG    1       -2.799   1.929   0.958  0.00  0.00    +0.137 A 
ATOM     30  C   LIG    1       -2.322   3.141   1.463  0.00  0.00    +0.099 A 
ATOM     31 CL   LIG    1       -3.433   4.410   1.856  0.00  0.00    -0.078 Cl
BRANCH  25  32
ATOM     32  N   LIG    1       -0.402   4.468   2.132  0.00  0.00    -0.298 N 
ATOM     33  H   LIG    1       -1.083   5.215   2.152  0.00  0.00    +0.154 HD
BRANCH  32  35
ATOM     34  C   LIG    1        1.143   6.251   2.842  0.00  0.00    +0.058 A 
ATOM     35  C   LIG    1        0.853   4.872   2.642  0.00  0.00    +0.045 A 
ATOM     36  C   LIG    1        1.833   3.918   2.968  0.00  0.00    +0.024 A 
ATOM     37  C   LIG    1        3.080   4.298   3.452  0.00  0.00    +0.002 A 
ATOM     38  C   LIG    1        3.373   5.643   3.631  0.00  0.00    +0.001 A 
ATOM     39  C   LIG    1        2.414   6.605   3.333  0.00  0.00    +0.015 A 
BRANCH  34  43
ATOM     40  C   LIG    1       -0.138   9.732   1.859  0.00  0.00    +0.128 C 
ATOM     41  N   LIG    1        0.642   8.544   2.188  0.00  0.00    -0.314 N 
ATOM     42  H   LIG    1        1.646   8.639   2.130  0.00  0.00    +0.149 HD
ATOM     43  C   LIG    1        0.131   7.356   2.564  0.00  0.00    +0.246 C 
ATOM     44  O   LIG    1       -1.081   7.156   2.666  0.00  0.00    -0.270 OA
ENDBRANCH  34  43
ENDBRANCH  32  35
ENDBRANCH  25  32
ENDBRANCH  23  27
ENDBRANCH   1  23
BRANCH   2  45
ATOM     45  O   LIG    1        1.386  -2.423   1.080  0.00  0.00    -0.493 OA
ATOM     46  C   LIG    1        0.889  -3.174  -0.021  0.00  0.00    +0.277 C 
ENDBRANCH   2  45
TORSDOF 10
