REMARK  Name = DB13529
REMARK                            x       y       z     vdW  Elec       q    Type
REMARK                         _______ _______ _______ _____ _____    ______ ____
ROOT
ATOM      1  C   LIG    1       -0.692   1.214   0.000  0.00  0.00    +0.049 A 
ATOM      2  C   LIG    1        0.007   0.008   0.000  0.00  0.00    +0.119 A 
ATOM      3  C   LIG    1       -0.689  -1.201   0.000  0.00  0.00    +0.078 A 
ATOM      4  C   LIG    1       -2.091  -1.216   0.000  0.00  0.00    +0.161 A 
ATOM      5  C   LIG    1       -2.789   0.004   0.000  0.00  0.00    +0.144 A 
ATOM      6  C   LIG    1       -2.086   1.211   0.000  0.00  0.00    +0.051 A 
ENDROOT
BRANCH   4   7
ATOM      7  S   LIG    1       -2.981  -2.784   0.000  0.00  0.00    +0.113 S 
ATOM      8  O   LIG    1       -1.924  -3.803   0.000  0.00  0.00    -0.142 OA
ATOM      9  O   LIG    1       -3.763  -2.708  -1.240  0.00  0.00    -0.142 OA
BRANCH   7  10
ATOM     10  O   LIG    1       -3.763  -2.708   1.240  0.00  0.00    -0.250 OA
ATOM     11  H   LIG    1       -4.435  -2.014   1.156  0.00  0.00    +0.245 HD
ENDBRANCH   7  10
ENDBRANCH   4   7
BRANCH   2  12
ATOM     12  O   LIG    1        1.377   0.012   0.000  0.00  0.00    -0.507 OA
ATOM     13  H   LIG    1        1.753  -0.872   0.000  0.00  0.00    +0.292 HD
ENDBRANCH   2  12
BRANCH   5  14
ATOM     14  O   LIG    1       -4.159   0.047   0.000  0.00  0.00    -0.505 OA
ATOM     15  H   LIG    1       -4.504   0.942   0.000  0.00  0.00    +0.292 HD
ENDBRANCH   5  14
TORSDOF 4
