REMARK  Name = DB13908
REMARK                            x       y       z     vdW  Elec       q    Type
REMARK                         _______ _______ _______ _____ _____    ______ ____
ROOT
ATOM      1  C   LIG    1        2.041  -1.490  -0.222  0.00  0.00    -0.006 A 
ATOM      2  C   LIG    1        2.476  -1.979   1.021  0.00  0.00    +0.120 A 
ATOM      3  C   LIG    1        2.974  -3.279   1.126  0.00  0.00    +0.049 A 
ATOM      4  C   LIG    1        3.039  -4.105   0.001  0.00  0.00    -0.047 A 
ATOM      5  C   LIG    1        3.591  -5.515   0.114  0.00  0.00    +0.044 C 
ATOM      6  C   LIG    1        2.611  -3.619  -1.236  0.00  0.00    +0.004 A 
ATOM      7  C   LIG    1        2.115  -2.321  -1.346  0.00  0.00    +0.007 A 
ENDROOT
BRANCH   2   8
ATOM      8  O   LIG    1        2.425  -1.199   2.148  0.00  0.00    -0.506 OA
ATOM      9  H   LIG    1        2.752  -1.652   2.929  0.00  0.00    +0.292 HD
ENDBRANCH   2   8
BRANCH   1  10
ATOM     10  C   LIG    1        1.490  -0.075  -0.373  0.00  0.00    +0.039 C 
BRANCH  10  11
ATOM     11  C   LIG    1        0.018   0.042   0.066  0.00  0.00    +0.005 C 
BRANCH  11  12
ATOM     12  C   LIG    1       -0.543   1.466  -0.094  0.00  0.00    +0.000 C 
BRANCH  12  14
ATOM     13  C   LIG    1       -2.575   3.002   0.180  0.00  0.00    +0.004 C 
ATOM     14  C   LIG    1       -2.014   1.583   0.343  0.00  0.00    -0.003 C 
ENDBRANCH  12  14
ENDBRANCH  11  12
ENDBRANCH  10  11
ENDBRANCH   1  10
TORSDOF 5
