REMARK  Name = DB13096
REMARK                            x       y       z     vdW  Elec       q    Type
REMARK                         _______ _______ _______ _____ _____    ______ ____
ROOT
ATOM      1  C   LIG    1       -0.043  -0.088   0.015  0.00  0.00    +0.006 C 
ATOM      2  C   LIG    1        1.504   0.040  -0.051  0.00  0.00    -0.020 C 
ATOM      3  C   LIG    1        2.195   0.678   1.228  0.00  0.00    -0.031 C 
ATOM      4  C   LIG    1        1.786   2.199   1.244  0.00  0.00    -0.007 C 
ATOM      5  C   LIG    1        2.116   2.956  -0.063  0.00  0.00    -0.001 C 
ATOM      6  C   LIG    1        1.543   2.268  -1.313  0.00  0.00    +0.000 C 
ATOM      7  C   LIG    1        1.942   0.783  -1.341  0.00  0.00    +0.002 C 
ENDROOT
BRANCH   3   8
ATOM      8  N   LIG    1        1.564   0.019   2.516  0.00  0.00    +0.387 N 
ATOM      9  H   LIG    1        0.565   0.137   2.424  0.00  0.00    -0.081 HD
ATOM     10  C   LIG    1        1.960   0.694   3.864  0.00  0.00    -0.078 C 
ATOM     11  C   LIG    1        1.144   0.083   5.018  0.00  0.00    -0.019 C 
ATOM     12  C   LIG    1        1.304  -1.440   5.107  0.00  0.00    -0.004 C 
ATOM     13  C   LIG    1        0.983  -2.108   3.764  0.00  0.00    -0.019 C 
ATOM     14  C   LIG    1        1.816  -1.515   2.616  0.00  0.00    -0.078 C 
ENDBRANCH   3   8
BRANCH   3  15
ATOM     15  C   LIG    1        3.733   0.503   1.287  0.00  0.00    -0.020 A 
ATOM     16  S   LIG    1        4.584  -0.836   0.529  0.00  0.00    -0.103 S 
ATOM     17  C   LIG    1        6.129  -0.263   1.046  0.00  0.00    +0.045 A 
ATOM     18  C   LIG    1        6.016   0.908   1.766  0.00  0.00    +0.008 A 
ATOM     19  C   LIG    1        4.691   1.329   1.895  0.00  0.00    +0.010 A 
ENDBRANCH   3  15
TORSDOF 2
