REMARK  Name = DB13065
REMARK                            x       y       z     vdW  Elec       q    Type
REMARK                         _______ _______ _______ _____ _____    ______ ____
ROOT
ATOM      1  C   LIG    1        1.520   0.005   0.013  0.00  0.00    +0.014 A 
ATOM      2  C   LIG    1        2.222  -1.211  -0.085  0.00  0.00    +0.132 A 
ATOM      3  F   LIG    1        1.572  -2.397  -0.096  0.00  0.00    -0.205 F 
ATOM      4  C   LIG    1        3.611  -1.230  -0.176  0.00  0.00    +0.077 A 
ATOM      5  C   LIG    1        4.337  -0.044  -0.176  0.00  0.00    +0.134 A 
ATOM      6  F   LIG    1        5.688  -0.107  -0.248  0.00  0.00    -0.205 F 
ATOM      7  C   LIG    1        3.678   1.190  -0.089  0.00  0.00    +0.021 A 
ATOM      8  C   LIG    1        2.280   1.192   0.007  0.00  0.00    +0.020 A 
ENDROOT
BRANCH   1  10
ATOM      9  C   LIG    1       -0.490  -0.749   1.381  0.00  0.00    +0.039 C 
ATOM     10  C   LIG    1       -0.038   0.016   0.107  0.00  0.00    +0.066 C 
ATOM     11  N   LIG    1       -0.657   1.356   0.217  0.00  0.00    -0.359 N 
ATOM     12  H   LIG    1       -0.763   1.753   1.139  0.00  0.00    +0.162 HD
ATOM     13  C   LIG    1       -0.884   2.164  -0.813  0.00  0.00    +0.126 C 
ATOM     14  S   LIG    1       -0.862   1.796  -2.507  0.00  0.00    -0.093 S 
ATOM     15  C   LIG    1       -0.358   0.052  -2.506  0.00  0.00    +0.080 C 
ATOM     16  C   LIG    1       -0.680  -0.636  -1.162  0.00  0.00    +0.044 C 
BRANCH  13  17
ATOM     17  N   LIG    1       -1.229   3.428  -0.607  0.00  0.00    -0.339 N 
ATOM     18  H   LIG    1       -1.412   4.032  -1.396  0.00  0.00    +0.144 HD
ATOM     19  H   LIG    1       -1.299   3.789   0.334  0.00  0.00    +0.144 HD
ENDBRANCH  13  17
ENDBRANCH   1  10
BRANCH   7  20
ATOM     20  C   LIG    1        4.425   2.479  -0.097  0.00  0.00    +0.021 A 
ATOM     21  C   LIG    1        5.465   2.741  -1.002  0.00  0.00    +0.122 A 
ATOM     22  N   LIG    1        6.151   3.913  -1.027  0.00  0.00    -0.243 NA
ATOM     23  C   LIG    1        5.773   4.843  -0.114  0.00  0.00    +0.221 A 
ATOM     24  N   LIG    1        4.784   4.706   0.805  0.00  0.00    -0.243 NA
ATOM     25  C   LIG    1        4.124   3.519   0.796  0.00  0.00    +0.122 A 
ENDBRANCH   7  20
TORSDOF 3
