REMARK  Name = DB13248
REMARK                            x       y       z     vdW  Elec       q    Type
REMARK                         _______ _______ _______ _____ _____    ______ ____
ROOT
ATOM      1  C   LIG    1       -0.379   0.067   0.188  0.00  0.00    +0.034 A 
ATOM      2  C   LIG    1       -0.906   1.360   0.243  0.00  0.00    +0.025 A 
ATOM      3  C   LIG    1       -2.278   1.556   0.369  0.00  0.00    +0.030 A 
ATOM      4  C   LIG    1       -3.132   0.456   0.450  0.00  0.00    +0.109 A 
ATOM      5  C   LIG    1       -2.615  -0.839   0.402  0.00  0.00    +0.030 A 
ATOM      6  C   LIG    1       -1.243  -1.037   0.274  0.00  0.00    +0.025 A 
ENDROOT
BRANCH   1   9
ATOM      7  C   LIG    1        1.806  -1.094  -0.172  0.00  0.00    +0.249 C 
ATOM      8  O   LIG    1        1.405  -2.245  -0.346  0.00  0.00    -0.270 OA
ATOM      9  N   LIG    1        1.021  -0.017   0.061  0.00  0.00    -0.281 N 
ATOM     10  H   LIG    1        1.498   0.870   0.130  0.00  0.00    +0.155 HD
BRANCH   7  13
ATOM     11  C   LIG    1        5.208   0.214   0.905  0.00  0.00    +0.001 A 
ATOM     12  C   LIG    1        3.842  -0.046   0.839  0.00  0.00    +0.014 A 
ATOM     13  C   LIG    1        3.291  -0.792  -0.217  0.00  0.00    +0.051 A 
ATOM     14  C   LIG    1        4.158  -1.268  -1.242  0.00  0.00    +0.071 A 
ATOM     15  C   LIG    1        5.534  -1.010  -1.142  0.00  0.00    +0.016 A 
ATOM     16  C   LIG    1        6.055  -0.274  -0.082  0.00  0.00    +0.001 A 
BRANCH  14  17
ATOM     17  C   LIG    1        3.692  -2.050  -2.451  0.00  0.00    +0.338 C 
ATOM     18  O   LIG    1        4.291  -3.044  -2.858  0.00  0.00    -0.245 OA
BRANCH  17  19
ATOM     19  O   LIG    1        2.602  -1.522  -3.082  0.00  0.00    -0.477 OA
ATOM     20  H   LIG    1        2.352  -2.030  -3.857  0.00  0.00    +0.295 HD
ENDBRANCH  17  19
ENDBRANCH  14  17
ENDBRANCH   7  13
ENDBRANCH   1   9
BRANCH   4  21
ATOM     21  S   LIG    1       -4.900   0.703   0.593  0.00  0.00    +0.074 S 
ATOM     22  O   LIG    1       -5.118   2.045   1.144  0.00  0.00    -0.150 OA
ATOM     23  O   LIG    1       -5.473  -0.483   1.240  0.00  0.00    -0.150 OA
BRANCH  21  24
ATOM     24  N   LIG    1       -5.485   0.744  -1.082  0.00  0.00    -0.194 N 
ATOM     25  H   LIG    1       -5.555   1.673  -1.470  0.00  0.00    +0.176 HD
BRANCH  24  26
ATOM     26  C   LIG    1       -5.712  -0.359  -1.864  0.00  0.00    +0.177 A 
ATOM     27  S   LIG    1       -6.500  -0.152  -3.395  0.00  0.00    -0.059 S 
ATOM     28  C   LIG    1       -6.357  -1.866  -3.644  0.00  0.00    +0.068 A 
ATOM     29  C   LIG    1       -5.721  -2.428  -2.542  0.00  0.00    +0.120 A 
ATOM     30  N   LIG    1       -5.371  -1.594  -1.583  0.00  0.00    -0.232 NA
ENDBRANCH  24  26
ENDBRANCH  21  24
ENDBRANCH   4  21
TORSDOF 7
