REMARK  Name = DB13136
REMARK                            x       y       z     vdW  Elec       q    Type
REMARK                         _______ _______ _______ _____ _____    ______ ____
ROOT
ATOM      1  C   LIG    1        4.491   3.769   0.686  0.00  0.00    +0.001 A 
ATOM      2  C   LIG    1        3.687   2.871   1.390  0.00  0.00    +0.012 A 
ATOM      3  C   LIG    1        2.887   1.965   0.688  0.00  0.00    +0.029 A 
ATOM      4  C   LIG    1        1.952   0.953   1.211  0.00  0.00    +0.179 C 
ATOM      5  O   LIG    1        1.676   0.738   2.391  0.00  0.00    -0.291 OA
ATOM      6  C   LIG    1        1.401   0.199  -0.003  0.00  0.00    +0.161 C 
ATOM      7  C   LIG    1        1.952   0.947  -1.222  0.00  0.00    +0.179 C 
ATOM      8  O   LIG    1        1.675   0.726  -2.400  0.00  0.00    -0.291 OA
ATOM      9  C   LIG    1        2.887   1.961  -0.704  0.00  0.00    +0.029 A 
ATOM     10  C   LIG    1        3.688   2.863  -1.411  0.00  0.00    +0.012 A 
ATOM     11  C   LIG    1        4.492   3.764  -0.711  0.00  0.00    +0.001 A 
ENDROOT
BRANCH   6  12
ATOM     12  C   LIG    1       -0.128   0.076  -0.002  0.00  0.00    -0.029 A 
ATOM     13  C   LIG    1       -0.706  -1.198  -0.001  0.00  0.00    +0.007 A 
ATOM     14  C   LIG    1       -2.091  -1.338   0.002  0.00  0.00    +0.038 A 
ATOM     15  C   LIG    1       -2.902  -0.205   0.004  0.00  0.00    +0.123 A 
ATOM     16  F   LIG    1       -4.247  -0.343   0.008  0.00  0.00    -0.205 F 
ATOM     17  C   LIG    1       -2.338   1.068   0.003  0.00  0.00    +0.038 A 
ATOM     18  C   LIG    1       -0.953   1.210  -0.001  0.00  0.00    +0.007 A 
ENDBRANCH   6  12
TORSDOF 1
