REMARK  Name = DB13088
REMARK                            x       y       z     vdW  Elec       q    Type
REMARK                         _______ _______ _______ _____ _____    ______ ____
ROOT
ATOM      1  C   LIG    1       -2.094  -0.974  -0.418  0.00  0.00    +0.137 A 
ATOM      2  C   LIG    1       -2.932   0.192  -0.410  0.00  0.00    +0.082 A 
ATOM      3  C   LIG    1       -4.362   0.209  -0.562  0.00  0.00    +0.138 A 
ATOM      4  N   LIG    1       -5.084   1.359  -0.512  0.00  0.00    -0.220 NA
ATOM      5  C   LIG    1       -4.394   2.505  -0.337  0.00  0.00    +0.223 A 
ATOM      6  N   LIG    1       -3.055   2.628  -0.200  0.00  0.00    -0.235 NA
ATOM      7  C   LIG    1       -2.326   1.478  -0.235  0.00  0.00    +0.083 A 
ATOM      8  C   LIG    1       -0.925   1.585  -0.095  0.00  0.00    +0.074 A 
ATOM      9  C   LIG    1       -0.118   0.445  -0.123  0.00  0.00    +0.126 A 
ATOM     10  C   LIG    1       -0.709  -0.805  -0.277  0.00  0.00    +0.092 A 
ENDROOT
BRANCH   3  11
ATOM     11  N   LIG    1       -5.091  -0.978  -0.757  0.00  0.00    -0.295 N 
ATOM     12  H   LIG    1       -4.545  -1.823  -0.658  0.00  0.00    +0.154 HD
BRANCH  11  13
ATOM     13  C   LIG    1       -6.461  -1.182  -0.979  0.00  0.00    +0.100 A 
ATOM     14  C   LIG    1       -7.177  -2.047  -0.151  0.00  0.00    +0.208 A 
ATOM     15  O   LIG    1       -6.767  -2.771   0.924  0.00  0.00    -0.449 OA
ATOM     16  C   LIG    1       -7.936  -3.321   1.473  0.00  0.00    +0.468 C 
ATOM     17  O   LIG    1       -8.956  -3.209   0.514  0.00  0.00    -0.437 OA
ATOM     18  C   LIG    1       -8.496  -2.305  -0.388  0.00  0.00    +0.263 A 
ATOM     19  N   LIG    1       -9.217  -1.801  -1.415  0.00  0.00    -0.217 NA
ATOM     20  C   LIG    1       -8.526  -0.971  -2.249  0.00  0.00    +0.136 A 
ATOM     21  C   LIG    1       -7.165  -0.649  -2.085  0.00  0.00    +0.084 A 
ATOM     22 CL   LIG    1       -6.402   0.346  -3.280  0.00  0.00    -0.080 Cl
ENDBRANCH  11  13
ENDBRANCH   3  11
BRANCH   1  23
ATOM     23  O   LIG    1       -2.690  -2.215  -0.574  0.00  0.00    -0.488 OA
BRANCH  23  25
ATOM     24  C   LIG    1       -2.838  -4.524  -1.101  0.00  0.00    +0.051 C 
ATOM     25  C   LIG    1       -1.950  -3.434  -0.484  0.00  0.00    +0.167 C 
ATOM     26  C   LIG    1       -1.595  -3.755   0.981  0.00  0.00    +0.051 C 
ENDBRANCH  23  25
ENDBRANCH   1  23
BRANCH   9  27
ATOM     27  O   LIG    1        1.259   0.463  -0.007  0.00  0.00    -0.494 OA
BRANCH  27  28
ATOM     28  C   LIG    1        1.942   1.713   0.084  0.00  0.00    +0.210 C 
BRANCH  28  29
ATOM     29  C   LIG    1        3.466   1.486   0.046  0.00  0.00    -0.037 C 
BRANCH  29  30
ATOM     30  N   LIG    1        3.878   0.531  -1.101  0.00  0.00    +0.384 N 
ATOM     31  H   LIG    1        3.321  -0.311  -1.035  0.00  0.00    -0.082 HD
ATOM     32  C   LIG    1        5.365   0.132  -0.959  0.00  0.00    -0.059 C 
ATOM     33  C   LIG    1        5.765  -0.832  -2.104  0.00  0.00    +0.089 C 
ATOM     34  N   LIG    1        5.493  -0.190  -3.408  0.00  0.00    -0.305 N 
ATOM     35  C   LIG    1        6.443   0.609  -3.960  0.00  0.00    +0.212 C 
ATOM     36  C   LIG    1        6.197   1.173  -5.363  0.00  0.00    +0.109 C 
ATOM     37  O   LIG    1        7.512   0.876  -3.408  0.00  0.00    -0.276 OA
ATOM     38  C   LIG    1        4.069   0.154  -3.592  0.00  0.00    +0.089 C 
ATOM     39  C   LIG    1        3.638   1.158  -2.495  0.00  0.00    -0.059 C 
ENDBRANCH  29  30
ENDBRANCH  28  29
ENDBRANCH  27  28
ENDBRANCH   9  27
TORSDOF 8
