REMARK  Name = DB13095
REMARK                            x       y       z     vdW  Elec       q    Type
REMARK                         _______ _______ _______ _____ _____    ______ ____
ROOT
ATOM      1  N   LIG    1       -1.386  -0.170   2.123  0.00  0.00    -0.306 N 
ATOM      2  C   LIG    1       -0.042  -0.510   1.616  0.00  0.00    +0.137 C 
ATOM      3  C   LIG    1        0.217  -0.141   0.125  0.00  0.00    +0.183 C 
ATOM      4  N   LIG    1       -0.248   1.250  -0.202  0.00  0.00    -0.162 NA
ATOM      5  C   LIG    1       -1.619   1.492   0.303  0.00  0.00    +0.129 C 
ATOM      6  C   LIG    1       -1.693   1.238   1.817  0.00  0.00    +0.124 C 
ENDROOT
BRANCH   1   9
ATOM      7  C   LIG    1       -3.777  -2.047   4.405  0.00  0.00    +0.078 A 
ATOM      8  S   LIG    1       -3.686  -0.510   3.565  0.00  0.00    -0.049 S 
ATOM      9  C   LIG    1       -2.094  -0.988   2.975  0.00  0.00    +0.164 A 
ATOM     10  N   LIG    1       -1.689  -2.175   3.350  0.00  0.00    -0.205 NA
ATOM     11  C   LIG    1       -2.595  -2.791   4.152  0.00  0.00    +0.172 A 
ATOM     12  N   LIG    1       -2.386  -4.012   4.659  0.00  0.00    -0.212 NA
ATOM     13  C   LIG    1       -3.397  -4.486   5.439  0.00  0.00    +0.134 A 
ATOM     14  N   LIG    1       -4.566  -3.864   5.747  0.00  0.00    -0.239 NA
ATOM     15  C   LIG    1       -4.758  -2.626   5.223  0.00  0.00    +0.131 A 
BRANCH  13  16
ATOM     16  C   LIG    1       -3.201  -5.875   6.018  0.00  0.00    +0.057 C 
ATOM     17  C   LIG    1       -4.210  -6.984   5.819  0.00  0.00    +0.012 C 
ATOM     18  C   LIG    1       -2.853  -7.067   5.155  0.00  0.00    +0.012 C 
ENDBRANCH  13  16
ENDBRANCH   1   9
BRANCH   3  19
ATOM     19  C   LIG    1        1.727  -0.348  -0.118  0.00  0.00    +0.234 C 
ATOM     20  O   LIG    1        2.541   0.520   0.203  0.00  0.00    -0.274 OA
ATOM     21  N   LIG    1        2.077  -1.510  -0.700  0.00  0.00    -0.310 N 
ATOM     22  H   LIG    1        1.346  -2.160  -0.949  0.00  0.00    +0.149 HD
BRANCH  21  23
ATOM     23  C   LIG    1        3.426  -1.860  -1.141  0.00  0.00    +0.139 C 
BRANCH  23  24
ATOM     24  C   LIG    1        3.737  -1.307  -2.525  0.00  0.00    -0.027 A 
ATOM     25  C   LIG    1        4.382  -0.074  -2.665  0.00  0.00    +0.009 A 
ATOM     26  C   LIG    1        4.666   0.429  -3.934  0.00  0.00    +0.049 A 
ATOM     27  C   LIG    1        4.327  -0.304  -5.075  0.00  0.00    +0.165 A 
ATOM     28  C   LIG    1        3.689  -1.542  -4.937  0.00  0.00    +0.165 A 
ATOM     29  F   LIG    1        3.339  -2.256  -6.031  0.00  0.00    -0.202 F 
ATOM     30  C   LIG    1        3.408  -2.045  -3.666  0.00  0.00    +0.047 A 
BRANCH  27  31
ATOM     31  O   LIG    1        4.595   0.206  -6.322  0.00  0.00    -0.403 OA
BRANCH  31  32
ATOM     32  C   LIG    1        5.884  -0.102  -6.848  0.00  0.00    +0.575 C 
ATOM     33  F   LIG    1        6.050  -1.417  -7.010  0.00  0.00    -0.133 F 
ATOM     34  F   LIG    1        6.860   0.394  -6.084  0.00  0.00    -0.133 F 
ATOM     35  F   LIG    1        5.977   0.470  -8.047  0.00  0.00    -0.133 F 
ENDBRANCH  31  32
ENDBRANCH  27  31
ENDBRANCH  23  24
ENDBRANCH  21  23
ENDBRANCH   3  19
BRANCH   4  36
ATOM     36  S   LIG    1        0.044   1.893  -1.848  0.00  0.00    +0.062 S 
ATOM     37  O   LIG    1        1.484   1.875  -2.130  0.00  0.00    -0.153 OA
ATOM     38  O   LIG    1       -0.704   3.148  -1.991  0.00  0.00    -0.153 OA
BRANCH  36  39
ATOM     39  C   LIG    1       -0.716   0.704  -2.954  0.00  0.00    +0.106 A 
ATOM     40  C   LIG    1        0.061  -0.301  -3.532  0.00  0.00    +0.029 A 
ATOM     41  C   LIG    1       -0.529  -1.238  -4.374  0.00  0.00    +0.014 A 
ATOM     42  C   LIG    1       -1.902  -1.177  -4.640  0.00  0.00    +0.055 A 
ATOM     43  C   LIG    1       -2.674  -0.165  -4.059  0.00  0.00    +0.014 A 
ATOM     44  C   LIG    1       -2.084   0.773  -3.216  0.00  0.00    +0.029 A 
BRANCH  42  45
ATOM     45  C   LIG    1       -2.566  -2.193  -5.569  0.00  0.00    +0.417 C 
ATOM     46  F   LIG    1       -3.403  -1.582  -6.409  0.00  0.00    -0.166 F 
ATOM     47  F   LIG    1       -3.258  -3.065  -4.837  0.00  0.00    -0.166 F 
ATOM     48  F   LIG    1       -1.675  -2.869  -6.297  0.00  0.00    -0.166 F 
ENDBRANCH  42  45
ENDBRANCH  36  39
ENDBRANCH   4  36
TORSDOF 10
