REMARK  Name = DB13178
REMARK                            x       y       z     vdW  Elec       q    Type
REMARK                         _______ _______ _______ _____ _____    ______ ____
ROOT
ATOM      1  C   LIG    1        0.024   0.044   0.067  0.00  0.00    +0.176 C 
ATOM      2  C   LIG    1       -0.504  -0.615  -1.235  0.00  0.00    +0.176 C 
ATOM      3  C   LIG    1       -2.052  -0.759  -1.236  0.00  0.00    +0.176 C 
ATOM      4  C   LIG    1       -2.603  -1.413   0.062  0.00  0.00    +0.176 C 
ATOM      5  C   LIG    1       -2.042  -0.741   1.343  0.00  0.00    +0.176 C 
ATOM      6  C   LIG    1       -0.494  -0.678   1.336  0.00  0.00    +0.176 C 
ENDROOT
BRANCH   1   7
ATOM      7  O   LIG    1        1.437   0.164   0.078  0.00  0.00    -0.386 OA
ATOM      8  H   LIG    1        1.734   0.333  -0.819  0.00  0.00    +0.210 HD
ENDBRANCH   1   7
BRANCH   2   9
ATOM      9  O   LIG    1       -0.053   0.091  -2.381  0.00  0.00    -0.386 OA
ATOM     10  H   LIG    1       -0.422   0.978  -2.360  0.00  0.00    +0.210 HD
ENDBRANCH   2   9
BRANCH   3  11
ATOM     11  O   LIG    1       -2.496  -1.461  -2.386  0.00  0.00    -0.386 OA
ATOM     12  H   LIG    1       -3.044  -0.874  -2.913  0.00  0.00    +0.210 HD
ENDBRANCH   3  11
BRANCH   4  13
ATOM     13  O   LIG    1       -4.023  -1.417   0.072  0.00  0.00    -0.386 OA
ATOM     14  H   LIG    1       -4.333  -0.509   0.057  0.00  0.00    +0.210 HD
ENDBRANCH   4  13
BRANCH   5  15
ATOM     15  O   LIG    1       -2.531  -1.343   2.531  0.00  0.00    -0.386 OA
ATOM     16  H   LIG    1       -3.437  -1.623   2.377  0.00  0.00    +0.210 HD
ENDBRANCH   5  15
BRANCH   6  17
ATOM     17  O   LIG    1        0.088  -1.966   1.486  0.00  0.00    -0.386 OA
ATOM     18  H   LIG    1        0.596  -1.978   2.301  0.00  0.00    +0.210 HD
ENDBRANCH   6  17
TORSDOF 6
