REMARK  Name = DB13108
REMARK                            x       y       z     vdW  Elec       q    Type
REMARK                         _______ _______ _______ _____ _____    ______ ____
ROOT
ATOM      1  C   LIG    1        4.091  -4.518  -2.589  0.00  0.00    +0.044 C 
ATOM      2  C   LIG    1        3.358  -3.350  -1.955  0.00  0.00    -0.050 A 
ATOM      3  C   LIG    1        4.054  -2.196  -1.595  0.00  0.00    +0.004 A 
ATOM      4  C   LIG    1        3.378  -1.132  -1.006  0.00  0.00    +0.011 A 
ATOM      5  C   LIG    1        1.997  -1.205  -0.766  0.00  0.00    +0.019 A 
ATOM      6  C   LIG    1        1.311  -2.375  -1.125  0.00  0.00    +0.011 A 
ATOM      7  C   LIG    1        1.988  -3.440  -1.715  0.00  0.00    +0.004 A 
ENDROOT
BRANCH   5   8
ATOM      8  C   LIG    1        1.292  -0.042  -0.121  0.00  0.00    +0.180 C 
ATOM      9  O   LIG    1        1.933   0.946   0.252  0.00  0.00    -0.290 OA
BRANCH   8  10
ATOM     10  C   LIG    1       -0.225  -0.082   0.102  0.00  0.00    +0.122 C 
ATOM     11  C   LIG    1       -0.519  -0.845   1.410  0.00  0.00    +0.032 C 
BRANCH  10  12
ATOM     12  N   LIG    1       -0.834   1.272   0.122  0.00  0.00    -0.310 NA
ATOM     13  H   LIG    1       -1.763   1.236   0.516  0.00  0.00    +0.122 HD
ATOM     14  C   LIG    1       -0.882   1.925  -1.180  0.00  0.00    +0.101 C 
ENDBRANCH  10  12
ENDBRANCH   8  10
ENDBRANCH   5   8
TORSDOF 3
