REMARK  Name = DB13421
REMARK                            x       y       z     vdW  Elec       q    Type
REMARK                         _______ _______ _______ _____ _____    ______ ____
ROOT
ATOM      1  N   LIG    1        1.301  -0.203   0.139  0.00  0.00    -0.274 N 
ATOM      2  C   LIG    1        1.915   1.019   0.286  0.00  0.00    +0.102 A 
ATOM      3  C   LIG    1        3.231   1.242   0.076  0.00  0.00    +0.033 A 
ATOM      4  C   LIG    1        4.056   0.111  -0.349  0.00  0.00    +0.257 A 
ATOM      5  O   LIG    1        5.261   0.163  -0.595  0.00  0.00    -0.267 OA
ATOM      6  N   LIG    1        3.357  -1.057  -0.461  0.00  0.00    -0.275 N 
ATOM      7  H   LIG    1        3.904  -1.855  -0.747  0.00  0.00    +0.173 HD
ATOM      8  C   LIG    1        2.027  -1.315  -0.244  0.00  0.00    +0.331 A 
ATOM      9  O   LIG    1        1.596  -2.459  -0.390  0.00  0.00    -0.246 OA
ENDROOT
BRANCH   1  12
ATOM     10  C4* LIG    1       -2.094   0.923   0.301  0.00  0.00    +0.175 C 
ATOM     11  O4* LIG    1       -0.851   0.611  -0.328  0.00  0.00    -0.348 OA
ATOM     12  C1* LIG    1       -0.125  -0.323   0.415  0.00  0.00    +0.226 C 
ATOM     13  C2* LIG    1       -0.569  -0.111   1.854  0.00  0.00    +0.088 C 
ATOM     14  C3* LIG    1       -2.054   0.145   1.629  0.00  0.00    +0.150 C 
BRANCH  14  15
ATOM     15  O3* LIG    1       -2.796  -1.062   1.576  0.00  0.00    -0.389 OA
ATOM     16  H3* LIG    1       -3.676  -0.868   1.246  0.00  0.00    +0.210 HD
ENDBRANCH  14  15
BRANCH  10  17
ATOM     17  C5* LIG    1       -2.177   2.453   0.479  0.00  0.00    +0.190 C 
BRANCH  17  18
ATOM     18  O5* LIG    1       -2.238   3.106  -0.773  0.00  0.00    -0.392 OA
ATOM     19  H5* LIG    1       -2.289   4.053  -0.624  0.00  0.00    +0.210 HD
ENDBRANCH  17  18
ENDBRANCH  10  17
ENDBRANCH   1  12
BRANCH   3  20
ATOM     20  C   LIG    1        3.885   2.612   0.226  0.00  0.00    +0.039 C 
ATOM     21  C   LIG    1        4.791   2.750   1.460  0.00  0.00    +0.009 C 
ENDBRANCH   3  20
TORSDOF 5
