REMARK  Name = DB13253
REMARK                            x       y       z     vdW  Elec       q    Type
REMARK                         _______ _______ _______ _____ _____    ______ ____
ROOT
ATOM      1  C   LIG    1        1.938   0.673  -1.152  0.00  0.00    +0.129 C 
ATOM      2  C   LIG    1        1.622   2.215  -1.169  0.00  0.00    +0.236 C 
ATOM      3  O   LIG    1        1.813   2.976  -0.221  0.00  0.00    -0.274 OA
ATOM      4  N   LIG    1        1.115   2.665  -2.338  0.00  0.00    -0.239 N 
ATOM      5  H   LIG    1        0.942   3.659  -2.371  0.00  0.00    +0.159 HD
ATOM      6  C   LIG    1        0.762   1.990  -3.459  0.00  0.00    +0.312 C 
ATOM      7  O   LIG    1        0.299   2.551  -4.448  0.00  0.00    -0.252 OA
ATOM      8  N   LIG    1        0.941   0.648  -3.401  0.00  0.00    -0.239 N 
ATOM      9  H   LIG    1        0.642   0.145  -4.223  0.00  0.00    +0.159 HD
ATOM     10  C   LIG    1        1.430  -0.127  -2.406  0.00  0.00    +0.236 C 
ATOM     11  O   LIG    1        1.475  -1.353  -2.511  0.00  0.00    -0.274 OA
ENDROOT
BRANCH   1  12
ATOM     12  C   LIG    1        1.262   0.043   0.124  0.00  0.00    +0.057 C 
BRANCH  12  14
ATOM     13  C   LIG    1       -0.746  -0.895   1.419  0.00  0.00    +0.037 C 
ATOM     14  C   LIG    1       -0.288  -0.106   0.182  0.00  0.00    +0.113 C 
BRANCH  14  15
ATOM     15  O   LIG    1       -0.934   1.151   0.213  0.00  0.00    -0.392 OA
ATOM     16  H   LIG    1       -0.644   1.664  -0.545  0.00  0.00    +0.210 HD
ENDBRANCH  14  15
ENDBRANCH  12  14
ENDBRANCH   1  12
BRANCH   1  17
ATOM     17  C   LIG    1        3.500   0.524  -1.188  0.00  0.00    +0.052 C 
BRANCH  17  18
ATOM     18  C   LIG    1        4.263   1.053   0.019  0.00  0.00    -0.033 C 
ATOM     19  C   LIG    1        5.158   2.053  -0.017  0.00  0.00    +0.004 C 
ENDBRANCH  17  18
ENDBRANCH   1  17
TORSDOF 5
