REMARK  Name = DB13954
REMARK                            x       y       z     vdW  Elec       q    Type
REMARK                         _______ _______ _______ _____ _____    ______ ____
ROOT
ATOM      1  C   LIG    1        3.072   0.542  -3.671  0.00  0.00    +0.015 C 
ATOM      2  C   LIG    1        3.935   1.049  -2.471  0.00  0.00    +0.008 C 
ATOM      3  C   LIG    1        3.503   0.360  -1.154  0.00  0.00    +0.183 C 
ATOM      4  C   LIG    1        4.167  -1.038  -1.188  0.00  0.00    +0.045 C 
ATOM      5  C   LIG    1        5.362  -0.915  -2.154  0.00  0.00    +0.008 C 
ATOM      6  C   LIG    1        5.409   0.579  -2.508  0.00  0.00    +0.002 C 
ATOM      7  C   LIG    1        6.131   1.046  -3.797  0.00  0.00    +0.000 C 
ATOM      8  C   LIG    1        6.100   2.605  -3.875  0.00  0.00    +0.023 C 
ATOM      9  C   LIG    1        6.867   3.126  -5.111  0.00  0.00    -0.041 A 
ATOM     10  C   LIG    1        7.882   2.339  -5.718  0.00  0.00    -0.040 A 
ATOM     11  C   LIG    1        8.619   2.874  -6.782  0.00  0.00    +0.049 A 
ATOM     12  C   LIG    1        8.363   4.152  -7.271  0.00  0.00    +0.117 A 
ATOM     13  C   LIG    1        7.356   4.917  -6.698  0.00  0.00    +0.046 A 
ATOM     14  C   LIG    1        8.157   0.897  -5.279  0.00  0.00    +0.036 C 
ATOM     15  C   LIG    1        6.622   4.406  -5.632  0.00  0.00    +0.008 A 
ATOM     16  C   LIG    1        4.677   3.208  -3.644  0.00  0.00    +0.009 C 
ATOM     17  C   LIG    1        7.596   0.587  -3.884  0.00  0.00    +0.009 C 
ATOM     18  C   LIG    1        3.958   2.595  -2.414  0.00  0.00    +0.011 C 
ENDROOT
BRANCH  12  19
ATOM     19  O   LIG    1        9.094   4.650  -8.317  0.00  0.00    -0.507 OA
ATOM     20  H   LIG    1        9.755   4.033  -8.639  0.00  0.00    +0.292 HD
ENDBRANCH  12  19
BRANCH   3  21
ATOM     21  O   LIG    1        2.083   0.311  -1.003  0.00  0.00    -0.461 OA
BRANCH  21  22
ATOM     22  C   LIG    1        1.503   0.032   0.186  0.00  0.00    +0.307 C 
ATOM     23  O   LIG    1        2.087  -0.202   1.245  0.00  0.00    -0.251 OA
BRANCH  22  24
ATOM     24  C   LIG    1       -0.024   0.032   0.102  0.00  0.00    +0.121 C 
BRANCH  24  25
ATOM     25  C   LIG    1       -0.618   1.455   0.119  0.00  0.00    +0.014 C 
BRANCH  25  26
ATOM     26  C   LIG    1       -2.158   1.475  -0.004  0.00  0.00    -0.010 C 
ATOM     27  C   LIG    1       -2.892   0.788   1.170  0.00  0.00    +0.003 C 
ATOM     28  C   LIG    1       -4.098   1.674   1.487  0.00  0.00    +0.000 C 
ATOM     29  C   LIG    1       -3.602   3.083   1.179  0.00  0.00    +0.000 C 
ATOM     30  C   LIG    1       -2.735   2.908  -0.072  0.00  0.00    +0.003 C 
ENDBRANCH  25  26
ENDBRANCH  24  25
ENDBRANCH  22  24
ENDBRANCH  21  22
ENDBRANCH   3  21
TORSDOF 6
