REMARK  Name = DB13247
REMARK                            x       y       z     vdW  Elec       q    Type
REMARK                         _______ _______ _______ _____ _____    ______ ____
ROOT
ATOM      1  N   LIG    1        2.721  -0.002   1.916  0.00  0.00    -0.313 N 
ATOM      2  H   LIG    1        2.048  -0.135   2.656  0.00  0.00    +0.149 HD
ATOM      3  C   LIG    1        3.751   0.836   2.122  0.00  0.00    +0.230 C 
ATOM      4  O   LIG    1        4.631   1.059   1.289  0.00  0.00    -0.274 OA
ENDROOT
BRANCH   1   5
ATOM      5  C   LIG    1        2.496  -0.767   0.691  0.00  0.00    +0.119 C 
BRANCH   5   6
ATOM      6  C   LIG    1        1.798   0.035  -0.432  0.00  0.00    +0.103 C 
BRANCH   6   7
ATOM      7  N   LIG    1        0.342   0.175  -0.204  0.00  0.00    -0.296 NA
BRANCH   7   9
ATOM      8  C   LIG    1        0.606   2.397   0.922  0.00  0.00    +0.024 C 
ATOM      9  C   LIG    1       -0.103   1.593  -0.196  0.00  0.00    +0.051 C 
ATOM     10  C   LIG    1       -1.632   1.755  -0.008  0.00  0.00    +0.024 C 
ENDBRANCH   7   9
BRANCH   7  11
ATOM     11  C   LIG    1       -0.489  -0.765  -0.999  0.00  0.00    +0.051 C 
ATOM     12  C   LIG    1       -0.498  -0.449  -2.514  0.00  0.00    +0.024 C 
ATOM     13  C   LIG    1       -0.147  -2.245  -0.729  0.00  0.00    +0.024 C 
ENDBRANCH   7  11
ENDBRANCH   6   7
ENDBRANCH   5   6
ENDBRANCH   1   5
BRANCH   3  14
ATOM     14  C   LIG    1        3.788   1.551   3.479  0.00  0.00    +0.203 C 
BRANCH  14  15
ATOM     15  N   LIG    1        4.529   0.724   4.439  0.00  0.00    -0.293 N 
ATOM     16  C   LIG    1        3.932  -0.189   5.244  0.00  0.00    +0.216 C 
ATOM     17  O   LIG    1        2.742  -0.500   5.297  0.00  0.00    -0.276 OA
ATOM     18  C   LIG    1        5.042  -0.781   6.110  0.00  0.00    +0.097 C 
ATOM     19  C   LIG    1        6.348  -0.305   5.505  0.00  0.00    +0.028 C 
ATOM     20  C   LIG    1        5.966   0.880   4.640  0.00  0.00    +0.109 C 
ENDBRANCH  14  15
ENDBRANCH   3  14
TORSDOF 7
