REMARK  Name = DB13093
REMARK                            x       y       z     vdW  Elec       q    Type
REMARK                         _______ _______ _______ _____ _____    ______ ____
ROOT
ATOM      1  C   LIG    1       -4.864  -0.744  -0.356  0.00  0.00    +0.045 C 
ATOM      2  C   LIG    1       -3.363  -0.571  -0.566  0.00  0.00    -0.029 A 
ATOM      3  C   LIG    1       -2.460  -1.631  -0.353  0.00  0.00    +0.040 A 
ATOM      4  C   LIG    1       -1.086  -1.409  -0.549  0.00  0.00    +0.070 A 
ATOM      5  C   LIG    1       -0.617  -0.169  -0.980  0.00  0.00    +0.132 A 
ATOM      6  C   LIG    1       -1.520   0.875  -1.195  0.00  0.00    +0.047 A 
ATOM      7  C   LIG    1       -2.883   0.673  -0.989  0.00  0.00    +0.009 A 
ENDROOT
BRANCH   3   8
ATOM      8  N   LIG    1       -2.973  -2.872   0.080  0.00  0.00    -0.280 N 
ATOM      9  H   LIG    1       -3.878  -2.823   0.526  0.00  0.00    +0.155 HD
ATOM     10  C   LIG    1       -2.450  -4.106  -0.089  0.00  0.00    +0.266 C 
ATOM     11  O   LIG    1       -1.406  -4.361  -0.692  0.00  0.00    -0.268 OA
BRANCH  10  12
ATOM     12  C   LIG    1       -3.249  -5.152   0.511  0.00  0.00    +0.124 A 
ATOM     13  N   LIG    1       -2.841  -6.443   0.793  0.00  0.00    -0.262 N 
ATOM     14  C   LIG    1       -1.521  -7.046   0.630  0.00  0.00    +0.173 C 
ATOM     15  N   LIG    1       -3.834  -7.218   1.256  0.00  0.00    -0.176 NA
ATOM     16  C   LIG    1       -4.907  -6.461   1.270  0.00  0.00    +0.061 A 
ATOM     17  C   LIG    1       -6.228  -7.024   1.739  0.00  0.00    +0.067 C 
ATOM     18  C   LIG    1       -4.612  -5.179   0.796  0.00  0.00    +0.057 A 
ENDBRANCH  10  12
ENDBRANCH   3   8
BRANCH   5  19
ATOM     19  O   LIG    1        0.737   0.008  -1.149  0.00  0.00    -0.437 OA
BRANCH  19  20
ATOM     20  C   LIG    1        1.254   0.393  -2.369  0.00  0.00    +0.238 A 
ATOM     21  N   LIG    1        2.459   1.013  -2.270  0.00  0.00    -0.127 NA
ATOM     22  N   LIG    1        3.018   1.347  -3.444  0.00  0.00    -0.215 N 
ATOM     23  C   LIG    1        4.218   1.974  -3.649  0.00  0.00    +0.158 A 
ATOM     24  C   LIG    1        4.368   2.091  -5.032  0.00  0.00    +0.146 A 
ATOM     25  N   LIG    1        3.332   1.582  -5.685  0.00  0.00    -0.211 NA
ATOM     26  C   LIG    1        2.496   1.116  -4.723  0.00  0.00    +0.156 A 
ATOM     27  C   LIG    1        1.254   0.463  -4.793  0.00  0.00    +0.053 A 
ATOM     28  C   LIG    1        0.638   0.092  -3.595  0.00  0.00    +0.073 A 
BRANCH  24  29
ATOM     29  N   LIG    1        5.486   2.672  -5.617  0.00  0.00    -0.269 N 
ATOM     30  H   LIG    1        6.187   3.006  -4.973  0.00  0.00    +0.156 HD
ATOM     31  C   LIG    1        5.734   2.830  -6.936  0.00  0.00    +0.221 C 
ATOM     32  O   LIG    1        4.972   2.480  -7.841  0.00  0.00    -0.275 OA
BRANCH  31  33
ATOM     33  C   LIG    1        7.082   3.503  -7.260  0.00  0.00    +0.075 C 
ATOM     34  C   LIG    1        7.779   3.036  -8.521  0.00  0.00    +0.013 C 
ATOM     35  C   LIG    1        7.111   4.395  -8.485  0.00  0.00    +0.013 C 
ENDBRANCH  31  33
ENDBRANCH  24  29
ENDBRANCH  19  20
ENDBRANCH   5  19
TORSDOF 6
