REMARK  Name = DB13355
REMARK                            x       y       z     vdW  Elec       q    Type
REMARK                         _______ _______ _______ _____ _____    ______ ____
ROOT
ATOM      1  C   LIG    1       -0.258  -0.027   0.024  0.00  0.00    +0.264 C 
ATOM      2  C   LIG    1       -0.678  -0.780  -1.274  0.00  0.00    +0.145 C 
ATOM      3  O   LIG    1       -0.011  -2.053  -1.280  0.00  0.00    -0.482 OA
ATOM      4  C   LIG    1       -0.132  -2.839  -0.148  0.00  0.00    +0.132 A 
ATOM      5  C   LIG    1       -0.403  -2.322   1.137  0.00  0.00    +0.081 A 
ATOM      6  C   LIG    1       -0.508  -3.244   2.195  0.00  0.00    +0.149 A 
ATOM      7  O   LIG    1       -0.847  -2.765   3.459  0.00  0.00    -0.422 OA
ATOM      8  C   LIG    1       -0.949  -3.587   4.577  0.00  0.00    +0.337 A 
ATOM      9  O   LIG    1       -1.227  -3.032   5.637  0.00  0.00    -0.245 OA
ATOM     10  C   LIG    1       -0.718  -5.023   4.364  0.00  0.00    +0.092 A 
ATOM     11  C   LIG    1       -0.415  -5.500   3.143  0.00  0.00    +0.018 A 
ATOM     12  C   LIG    1       -0.299  -4.616   1.983  0.00  0.00    +0.018 A 
ATOM     13  C   LIG    1       -0.001  -5.095   0.709  0.00  0.00    +0.015 A 
ATOM     14  C   LIG    1        0.079  -4.203  -0.356  0.00  0.00    +0.047 A 
ATOM     15  C   LIG    1       -0.167  -0.040  -2.529  0.00  0.00    +0.059 C 
ATOM     16  C   LIG    1       -2.213  -0.992  -1.328  0.00  0.00    +0.059 C 
ATOM     17  C   LIG    1       -0.649  -0.815   1.306  0.00  0.00    +0.258 C 
ENDROOT
BRANCH   1  18
ATOM     18  O   LIG    1        1.157   0.215   0.026  0.00  0.00    -0.453 OA
BRANCH  18  19
ATOM     19  C   LIG    1        1.683   1.458   0.145  0.00  0.00    +0.310 C 
ATOM     20  O   LIG    1        1.045   2.511   0.221  0.00  0.00    -0.251 OA
BRANCH  19  21
ATOM     21  C   LIG    1        3.221   1.434   0.166  0.00  0.00    +0.094 C 
ATOM     22  C   LIG    1        3.727   1.402   1.622  0.00  0.00    +0.019 C 
BRANCH  21  24
ATOM     23  C   LIG    1        3.554   2.573  -2.146  0.00  0.00    +0.004 C 
ATOM     24  C   LIG    1        3.867   2.592  -0.639  0.00  0.00    +0.011 C 
ENDBRANCH  21  24
ENDBRANCH  19  21
ENDBRANCH  18  19
ENDBRANCH   1  18
BRANCH  17  25
ATOM     25  O   LIG    1       -0.010  -0.298   2.480  0.00  0.00    -0.453 OA
BRANCH  25  26
ATOM     26  C   LIG    1       -0.430   0.837   3.082  0.00  0.00    +0.305 C 
ATOM     27  O   LIG    1       -1.373   1.545   2.726  0.00  0.00    -0.251 OA
ATOM     28  C   LIG    1        0.412   1.186   4.301  0.00  0.00    +0.136 C 
ENDBRANCH  25  26
ENDBRANCH  17  25
TORSDOF 6
