REMARK  Name = DB13994
REMARK                            x       y       z     vdW  Elec       q    Type
REMARK                         _______ _______ _______ _____ _____    ______ ____
ROOT
ATOM      1  C   LIG    1       -4.396  -2.073   0.615  0.00  0.00    +0.001 A 
ATOM      2  C   LIG    1       -3.031  -2.234   0.419  0.00  0.00    +0.012 A 
ATOM      3  C   LIG    1       -2.206  -1.117   0.116  0.00  0.00    +0.026 A 
ATOM      4  C   LIG    1       -2.816   0.173   0.010  0.00  0.00    +0.103 A 
ATOM      5  N   LIG    1       -2.054   1.274  -0.251  0.00  0.00    -0.148 NA
ATOM      6  N   LIG    1       -0.735   1.177  -0.440  0.00  0.00    -0.142 NA
ATOM      7  C   LIG    1       -0.097  -0.019  -0.362  0.00  0.00    +0.169 A 
ATOM      8  C   LIG    1       -4.231   0.319   0.201  0.00  0.00    +0.016 A 
ATOM      9  C   LIG    1       -0.794  -1.212  -0.084  0.00  0.00    +0.067 A 
ATOM     10  C   LIG    1       -4.981  -0.820   0.509  0.00  0.00    +0.011 A 
ENDROOT
BRANCH   8  11
ATOM     11  C   LIG    1       -4.933   1.635   0.080  0.00  0.00    +0.061 A 
ATOM     12  C   LIG    1       -5.647   2.149   1.176  0.00  0.00    +0.135 A 
ATOM     13  F   LIG    1       -5.688   1.473   2.348  0.00  0.00    -0.205 F 
ATOM     14  C   LIG    1       -6.309   3.371   1.085  0.00  0.00    +0.039 A 
ATOM     15  C   LIG    1       -6.274   4.096  -0.100  0.00  0.00    +0.006 A 
ATOM     16  C   LIG    1       -5.585   3.595  -1.200  0.00  0.00    +0.046 A 
ATOM     17  C   LIG    1       -4.914   2.361  -1.129  0.00  0.00    +0.131 A 
BRANCH  17  18
ATOM     18  O   LIG    1       -4.245   1.801  -2.204  0.00  0.00    -0.494 OA
ATOM     19  C   LIG    1       -4.175   2.507  -3.438  0.00  0.00    +0.277 C 
ENDBRANCH  17  18
ENDBRANCH   8  11
BRANCH   7  20
ATOM     20  C   LIG    1        1.392   0.023  -0.631  0.00  0.00    +0.266 C 
ATOM     21  O   LIG    1        1.926  -0.814  -1.362  0.00  0.00    -0.268 OA
ATOM     22  N   LIG    1        2.071   1.014  -0.021  0.00  0.00    -0.310 N 
ATOM     23  H   LIG    1        1.560   1.658   0.565  0.00  0.00    +0.149 HD
BRANCH  22  24
ATOM     24  C   LIG    1        3.509   1.246  -0.143  0.00  0.00    +0.104 C 
BRANCH  24  25
ATOM     25  C   LIG    1        3.916   1.926  -1.464  0.00  0.00    +0.015 C 
ATOM     26  C   LIG    1        5.421   2.213  -1.550  0.00  0.00    +0.005 C 
ENDBRANCH  24  25
ENDBRANCH  22  24
ENDBRANCH   7  20
BRANCH   9  27
ATOM     27  N   LIG    1       -0.135  -2.447   0.013  0.00  0.00    -0.356 N 
ATOM     28  H   LIG    1       -0.669  -3.283   0.203  0.00  0.00    +0.142 HD
ATOM     29  H   LIG    1        0.857  -2.492  -0.170  0.00  0.00    +0.142 HD
ENDBRANCH   9  27
TORSDOF 6
