REMARK  Name = DB13040
REMARK                            x       y       z     vdW  Elec       q    Type
REMARK                         _______ _______ _______ _____ _____    ______ ____
ROOT
ATOM      1  C   LIG    1        1.485   0.525  -0.661  0.00  0.00    +0.145 A 
ATOM      2  N   LIG    1        2.102   1.274   0.294  0.00  0.00    -0.150 NA
ATOM      3  N   LIG    1        3.391   0.964   0.525  0.00  0.00    -0.215 N 
ATOM      4  C   LIG    1        4.255   1.549   1.426  0.00  0.00    +0.071 A 
ATOM      5  C   LIG    1        5.466   0.859   1.274  0.00  0.00    +0.062 A 
ATOM      6  C   LIG    1        6.773   1.071   2.004  0.00  0.00    +0.067 C 
ATOM      7  N   LIG    1        5.401  -0.086   0.358  0.00  0.00    -0.231 NA
ATOM      8  C   LIG    1        4.132  -0.040  -0.115  0.00  0.00    +0.159 A 
ATOM      9  C   LIG    1        3.474  -0.803  -1.099  0.00  0.00    +0.014 A 
ATOM     10  C   LIG    1        2.132  -0.500  -1.356  0.00  0.00    +0.054 A 
ENDROOT
BRANCH   1  11
ATOM     11  N   LIG    1        0.136   0.757  -0.980  0.00  0.00    -0.282 N 
ATOM     12  H   LIG    1       -0.216   0.087  -1.649  0.00  0.00    +0.155 HD
BRANCH  11  18
ATOM     13  C   LIG    1       -2.011   4.958   0.877  0.00  0.00    +0.065 C 
ATOM     14  C   LIG    1       -1.627   3.636   0.258  0.00  0.00    +0.035 A 
ATOM     15  N   LIG    1       -2.535   2.777  -0.298  0.00  0.00    -0.280 N 
ATOM     16  H   LIG    1       -3.529   2.951  -0.344  0.00  0.00    +0.189 HD
ATOM     17  N   LIG    1       -1.992   1.663  -0.798  0.00  0.00    -0.158 NA
ATOM     18  C   LIG    1       -0.702   1.767  -0.567  0.00  0.00    +0.146 A 
ATOM     19  C   LIG    1       -0.421   2.984   0.078  0.00  0.00    +0.068 A 
ENDBRANCH  11  18
ENDBRANCH   1  11
BRANCH   4  20
ATOM     20  C   LIG    1        3.842   2.688   2.348  0.00  0.00    +0.095 C 
BRANCH  20  21
ATOM     21  C   LIG    1        3.574   4.009   1.630  0.00  0.00    -0.006 A 
ATOM     22  C   LIG    1        4.533   4.584   0.783  0.00  0.00    +0.128 A 
ATOM     23  F   LIG    1        5.724   3.977   0.576  0.00  0.00    -0.205 F 
ATOM     24  C   LIG    1        4.268   5.796   0.144  0.00  0.00    +0.058 A 
ATOM     25  C   LIG    1        3.054   6.450   0.354  0.00  0.00    +0.044 A 
ATOM     26 CL   LIG    1        2.729   7.947  -0.440  0.00  0.00    -0.083 Cl
ATOM     27  C   LIG    1        2.104   5.893   1.210  0.00  0.00    +0.020 A 
ATOM     28  C   LIG    1        2.366   4.681   1.849  0.00  0.00    +0.008 A 
ENDBRANCH  20  21
ENDBRANCH   4  20
BRANCH   9  29
ATOM     29  C   LIG    1        4.150  -1.919  -1.886  0.00  0.00    +0.123 C 
BRANCH  29  30
ATOM     30  N   LIG    1        4.583  -1.484  -3.218  0.00  0.00    -0.294 NA
ATOM     31  C   LIG    1        4.887  -2.646  -4.063  0.00  0.00    +0.113 C 
ATOM     32  C   LIG    1        5.411  -2.217  -5.450  0.00  0.00    +0.175 C 
ATOM     33  O   LIG    1        6.538  -1.361  -5.301  0.00  0.00    -0.377 OA
ATOM     34  C   LIG    1        6.227  -0.181  -4.568  0.00  0.00    +0.175 C 
ATOM     35  C   LIG    1        5.719  -0.550  -3.158  0.00  0.00    +0.113 C 
ENDBRANCH  29  30
ENDBRANCH   9  29
TORSDOF 6
