REMARK  Name = DB13966
REMARK                            x       y       z     vdW  Elec       q    Type
REMARK                         _______ _______ _______ _____ _____    ______ ____
ROOT
ATOM      1  C   LIG    1        1.985  -1.518   0.256  0.00  0.00    +0.000 C 
ENDROOT
BRANCH   1   2
ATOM      2  C   LIG    1        1.428  -0.085   0.138  0.00  0.00    +0.000 C 
BRANCH   2   3
ATOM      3  C   LIG    1       -0.106  -0.029   0.242  0.00  0.00    +0.000 C 
BRANCH   3   4
ATOM      4  C   LIG    1       -0.664   1.399   0.106  0.00  0.00    -0.000 C 
BRANCH   4   5
ATOM      5  C   LIG    1       -2.200   1.453   0.190  0.00  0.00    -0.000 C 
BRANCH   5   6
ATOM      6  C   LIG    1       -2.763   2.875   0.019  0.00  0.00    -0.000 C 
BRANCH   6   7
ATOM      7  C   LIG    1       -4.301   2.922   0.079  0.00  0.00    -0.000 C 
BRANCH   7   8
ATOM      8  C   LIG    1       -4.867   4.338  -0.133  0.00  0.00    -0.000 C 
BRANCH   8  10
ATOM      9  C   LIG    1       -6.972   5.789  -0.311  0.00  0.00    +0.004 C 
ATOM     10  C   LIG    1       -6.405   4.381  -0.082  0.00  0.00    -0.003 C 
ENDBRANCH   8  10
ENDBRANCH   7   8
ENDBRANCH   6   7
ENDBRANCH   5   6
ENDBRANCH   4   5
ENDBRANCH   3   4
ENDBRANCH   2   3
ENDBRANCH   1   2
BRANCH   1  11
ATOM     11  C   LIG    1        3.510  -1.617   0.058  0.00  0.00    +0.001 C 
BRANCH  11  12
ATOM     12  C   LIG    1        4.341  -0.979   1.193  0.00  0.00    +0.011 C 
BRANCH  12  13
ATOM     13  C   LIG    1        5.872  -1.069   0.991  0.00  0.00    +0.120 C 
BRANCH  13  14
ATOM     14  C   LIG    1        6.430  -0.320  -0.229  0.00  0.00    +0.307 C 
ATOM     15  O   LIG    1        7.404  -0.756  -0.843  0.00  0.00    -0.251 OA
BRANCH  14  16
ATOM     16  O   LIG    1        5.751   0.819  -0.523  0.00  0.00    -0.462 OA
BRANCH  16  17
ATOM     17  C   LIG    1        6.084   1.633  -1.646  0.00  0.00    +0.170 C 
ATOM     18  C   LIG    1        5.575   1.006  -2.959  0.00  0.00    +0.052 C 
ATOM     19  C   LIG    1        5.470   3.021  -1.406  0.00  0.00    +0.052 C 
ENDBRANCH  16  17
ENDBRANCH  14  16
ENDBRANCH  13  14
ENDBRANCH  12  13
ENDBRANCH  11  12
ENDBRANCH   1  11
TORSDOF 14
