REMARK  Name = DB13858
REMARK                            x       y       z     vdW  Elec       q    Type
REMARK                         _______ _______ _______ _____ _____    ______ ____
ROOT
ATOM      1  C   LIG    1        3.460  -0.643   0.917  0.00  0.00    +0.122 A 
ATOM      2  C   LIG    1        3.971  -0.836   2.204  0.00  0.00    +0.063 A 
ATOM      3  C   LIG    1        5.329  -1.149   2.349  0.00  0.00    +0.044 A 
ATOM      4  S   LIG    1        6.268  -1.448   3.804  0.00  0.00    -0.052 S 
ATOM      5  C   LIG    1        7.686  -1.694   2.788  0.00  0.00    +0.161 A 
ATOM      6  N   LIG    1        7.471  -1.582   1.502  0.00  0.00    -0.225 NA
ATOM      7  C   LIG    1        6.178  -1.274   1.222  0.00  0.00    +0.081 A 
ATOM      8  C   LIG    1        5.660  -1.082  -0.066  0.00  0.00    +0.032 A 
ATOM      9  C   LIG    1        4.306  -0.768  -0.198  0.00  0.00    +0.048 A 
ENDROOT
BRANCH   5  10
ATOM     10  N   LIG    1        8.912  -2.020   3.348  0.00  0.00    -0.316 N 
ATOM     11  C   LIG    1       10.086  -2.233   2.499  0.00  0.00    +0.131 C 
ATOM     12  C   LIG    1        9.263  -1.631   4.715  0.00  0.00    +0.131 C 
ENDBRANCH   5  10
BRANCH   1  13
ATOM     13  O   LIG    1        2.114  -0.338   0.841  0.00  0.00    -0.491 OA
BRANCH  13  14
ATOM     14  C   LIG    1        1.521  -0.075  -0.430  0.00  0.00    +0.244 C 
BRANCH  14  15
ATOM     15  C   LIG    1        0.020   0.253  -0.268  0.00  0.00    +0.125 C 
BRANCH  15  16
ATOM     16  N   LIG    1       -0.289   1.661   0.048  0.00  0.00    -0.300 NA
BRANCH  16  18
ATOM     17  C   LIG    1        0.170   3.572   1.646  0.00  0.00    +0.020 C 
ATOM     18  C   LIG    1        0.318   2.073   1.326  0.00  0.00    +0.081 C 
ENDBRANCH  16  18
BRANCH  16  19
ATOM     19  C   LIG    1       -1.745   1.887   0.050  0.00  0.00    +0.081 C 
ATOM     20  C   LIG    1       -2.412   1.694  -1.325  0.00  0.00    +0.020 C 
ENDBRANCH  16  19
ENDBRANCH  15  16
ENDBRANCH  14  15
ENDBRANCH  13  14
ENDBRANCH   1  13
TORSDOF 7
