REMARK  Name = DB13024
REMARK                            x       y       z     vdW  Elec       q    Type
REMARK                         _______ _______ _______ _____ _____    ______ ____
ROOT
ATOM      1  C   LIG    1       -2.480   0.818  -0.598  0.00  0.00    +0.176 C 
ATOM      2  C   LIG    1       -1.602   1.143   0.624  0.00  0.00    +0.063 C 
ATOM      3  C   LIG    1       -0.105   1.166   0.250  0.00  0.00    +0.110 C 
ATOM      4  N   LIG    1        0.357  -0.061  -0.425  0.00  0.00    -0.312 N 
ATOM      5  C   LIG    1       -0.454  -0.334  -1.629  0.00  0.00    +0.110 C 
ATOM      6  C   LIG    1       -1.970  -0.426  -1.350  0.00  0.00    +0.063 C 
ENDROOT
BRANCH   4   7
ATOM      7  C   LIG    1        1.671  -0.450  -0.321  0.00  0.00    +0.165 A 
ATOM      8  N   LIG    1        2.287  -1.106  -1.287  0.00  0.00    -0.062 NA
ATOM      9  O   LIG    1        3.589  -1.356  -0.849  0.00  0.00    -0.350 OA
ATOM     10  C   LIG    1        3.735  -0.849   0.400  0.00  0.00    +0.209 A 
ATOM     11  C   LIG    1        2.536  -0.273   0.764  0.00  0.00    +0.100 A 
BRANCH  10  12
ATOM     12  C   LIG    1        5.021  -1.004   1.059  0.00  0.00    +0.242 A 
ATOM     13  N   LIG    1        5.248  -0.541   2.270  0.00  0.00    -0.127 NA
ATOM     14  N   LIG    1        6.519  -0.916   2.459  0.00  0.00    -0.152 N 
ATOM     15  N   LIG    1        7.076  -1.543   1.421  0.00  0.00    -0.045 NA
ATOM     16  N   LIG    1        6.055  -1.613   0.496  0.00  0.00    -0.104 NA
BRANCH  14  17
ATOM     17  C   LIG    1        7.282  -0.533   3.651  0.00  0.00    +0.288 C 
BRANCH  17  18
ATOM     18  C   LIG    1        7.973   0.852   3.575  0.00  0.00    +0.328 C 
ATOM     19  O   LIG    1        8.614   1.193   4.594  0.00  0.00    -0.249 OA
BRANCH  18  20
ATOM     20  O   LIG    1        7.875   1.558   2.543  0.00  0.00    -0.479 OA
ATOM     21  H   LIG    1        7.381   1.249   1.810  0.00  0.00    +0.295 HD
ENDBRANCH  18  20
ENDBRANCH  17  18
ENDBRANCH  14  17
ENDBRANCH  10  12
ENDBRANCH   4   7
BRANCH   1  22
ATOM     22  O   LIG    1       -3.893   0.858  -0.368  0.00  0.00    -0.488 OA
BRANCH  22  27
ATOM     23  C   LIG    1       -6.113  -1.718   2.090  0.00  0.00    +0.039 A 
ATOM     24  C   LIG    1       -4.738  -1.911   1.993  0.00  0.00    +0.127 A 
ATOM     25  F   LIG    1       -4.146  -2.911   2.684  0.00  0.00    -0.205 F 
ATOM     26  C   LIG    1       -3.970  -1.073   1.185  0.00  0.00    +0.085 A 
ATOM     27  C   LIG    1       -4.566  -0.027   0.459  0.00  0.00    +0.138 A 
ATOM     28  C   LIG    1       -5.953   0.152   0.567  0.00  0.00    +0.060 A 
ATOM     29 BR   LIG    1       -6.827   1.549  -0.391  0.00  0.00    -0.047 Br
ATOM     30  C   LIG    1       -6.720  -0.688   1.376  0.00  0.00    +0.022 A 
ENDBRANCH  22  27
ENDBRANCH   1  22
TORSDOF 7
