REMARK  Name = DB13225
REMARK                            x       y       z     vdW  Elec       q    Type
REMARK                         _______ _______ _______ _____ _____    ______ ____
ROOT
ATOM      1  N   LIG    1        1.847  -1.507   0.148  0.00  0.00    -0.305 N 
ATOM      2  C   LIG    1        1.871  -2.108   1.384  0.00  0.00    +0.261 A 
ATOM      3  O   LIG    1        1.587  -1.519   2.434  0.00  0.00    -0.267 OA
ATOM      4  C   LIG    1        2.290  -3.570   1.492  0.00  0.00    +0.063 A 
ATOM      5  C   LIG    1        3.247  -4.200   0.661  0.00  0.00    +0.054 A 
ATOM      6  N   LIG    1        3.747  -3.567  -0.488  0.00  0.00    -0.342 N 
ATOM      7  C   LIG    1        2.841  -3.096  -1.455  0.00  0.00    +0.066 A 
ATOM      8  C   LIG    1        2.906  -3.591  -2.773  0.00  0.00    +0.028 A 
ATOM      9  C   LIG    1        2.022  -3.170  -3.758  0.00  0.00    +0.002 A 
ATOM     10  C   LIG    1        1.055  -2.228  -3.449  0.00  0.00    +0.002 A 
ATOM     11  C   LIG    1        0.976  -1.726  -2.156  0.00  0.00    +0.028 A 
ATOM     12  C   LIG    1        5.092  -3.943  -0.943  0.00  0.00    +0.149 C 
ATOM     13  C   LIG    1        3.636  -5.516   0.981  0.00  0.00    +0.026 A 
ATOM     14  C   LIG    1        3.105  -6.194   2.074  0.00  0.00    +0.002 A 
ATOM     15  C   LIG    1        2.164  -5.570   2.881  0.00  0.00    +0.001 A 
ATOM     16  C   LIG    1        1.766  -4.269   2.597  0.00  0.00    +0.015 A 
ATOM     17  C   LIG    1        1.814  -2.173  -1.115  0.00  0.00    +0.068 A 
ENDROOT
BRANCH   1  18
ATOM     18  C   LIG    1        1.492  -0.064   0.178  0.00  0.00    +0.141 C 
BRANCH  18  19
ATOM     19  C   LIG    1       -0.004   0.252   0.452  0.00  0.00    +0.105 C 
BRANCH  19  21
ATOM     20  C   LIG    1       -1.662   1.958   0.713  0.00  0.00    +0.104 C 
ATOM     21  N   LIG    1       -0.342   1.650   0.169  0.00  0.00    -0.307 NA
ATOM     22  C   LIG    1       -0.346   1.936  -1.266  0.00  0.00    +0.104 C 
ENDBRANCH  19  21
ENDBRANCH  18  19
ENDBRANCH   1  18
TORSDOF 3
