REMARK  Name = DB13001
REMARK                            x       y       z     vdW  Elec       q    Type
REMARK                         _______ _______ _______ _____ _____    ______ ____
ROOT
ATOM      1  C   LIG    1        0.135   0.024   0.523  0.00  0.00    +0.090 A 
ATOM      2  C   LIG    1       -0.535  -1.164   0.875  0.00  0.00    +0.077 A 
ATOM      3  S   LIG    1       -2.256  -1.053   0.825  0.00  0.00    -0.080 S 
ATOM      4  C   LIG    1       -2.153   0.599   0.344  0.00  0.00    -0.021 A 
ATOM      5  C   LIG    1       -3.394   1.464   0.179  0.00  0.00    -0.035 C 
ATOM      6  N   LIG    1       -2.991   2.691  -0.672  0.00  0.00    +0.386 N 
ATOM      7  H   LIG    1       -2.731   2.377  -1.596  0.00  0.00    -0.081 HD
ATOM      8  C   LIG    1       -1.774   3.399  -0.032  0.00  0.00    -0.073 C 
ATOM      9  C   LIG    1       -0.527   2.494  -0.165  0.00  0.00    +0.018 C 
ATOM     10  C   LIG    1       -0.825   1.037   0.217  0.00  0.00    -0.025 A 
ENDROOT
BRANCH   2  11
ATOM     11  N   LIG    1       -0.002  -2.373   1.232  0.00  0.00    -0.352 N 
ATOM     12  H   LIG    1       -0.585  -3.164   1.462  0.00  0.00    +0.143 HD
ATOM     13  H   LIG    1        0.998  -2.511   1.289  0.00  0.00    +0.143 HD
ENDBRANCH   2  11
BRANCH   1  14
ATOM     14  C   LIG    1        1.603   0.159   0.489  0.00  0.00    +0.342 C 
ATOM     15  O   LIG    1        2.367  -0.548   1.151  0.00  0.00    -0.245 OA
BRANCH  14  16
ATOM     16  O   LIG    1        2.002   1.125  -0.368  0.00  0.00    -0.461 OA
BRANCH  16  18
ATOM     17  C   LIG    1        3.525   2.559  -1.562  0.00  0.00    +0.048 C 
ATOM     18  C   LIG    1        3.382   1.413  -0.557  0.00  0.00    +0.229 C 
ENDBRANCH  16  18
ENDBRANCH  14  16
ENDBRANCH   1  14
BRANCH   6  19
ATOM     19  C   LIG    1       -4.200   3.647  -0.811  0.00  0.00    -0.043 C 
BRANCH  19  20
ATOM     20  C   LIG    1       -3.994   4.770  -1.817  0.00  0.00    -0.064 A 
ATOM     21  C   LIG    1       -4.063   4.497  -3.187  0.00  0.00    +0.002 A 
ATOM     22  C   LIG    1       -3.888   5.525  -4.110  0.00  0.00    +0.000 A 
ATOM     23  C   LIG    1       -3.651   6.823  -3.661  0.00  0.00    +0.000 A 
ATOM     24  C   LIG    1       -3.590   7.103  -2.297  0.00  0.00    +0.000 A 
ATOM     25  C   LIG    1       -3.765   6.076  -1.374  0.00  0.00    +0.002 A 
ENDBRANCH  19  20
ENDBRANCH   6  19
TORSDOF 6
