REMARK  Name = DB13878
REMARK                            x       y       z     vdW  Elec       q    Type
REMARK                         _______ _______ _______ _____ _____    ______ ____
ROOT
ATOM      1  N   LIG    1        0.055   0.350   0.444  0.00  0.00    -0.315 N 
ATOM      2  C   LIG    1       -0.729   0.180   1.679  0.00  0.00    +0.107 C 
ATOM      3  C   LIG    1       -0.461  -1.229   2.226  0.00  0.00    +0.029 C 
ATOM      4  C   LIG    1       -0.047  -2.024   1.003  0.00  0.00    +0.029 C 
ATOM      5  C   LIG    1        0.607  -0.975   0.091  0.00  0.00    +0.107 C 
ENDROOT
BRANCH   2   6
ATOM      6  C   LIG    1       -2.219   0.494   1.450  0.00  0.00    +0.010 A 
ATOM      7  C   LIG    1       -2.940   0.002   0.344  0.00  0.00    +0.130 A 
ATOM      8  F   LIG    1       -2.333  -0.775  -0.582  0.00  0.00    -0.205 F 
ATOM      9  C   LIG    1       -4.294   0.290   0.149  0.00  0.00    +0.066 A 
ATOM     10  C   LIG    1       -4.912   1.093   1.108  0.00  0.00    +0.069 A 
ATOM     11  C   LIG    1       -4.220   1.595   2.235  0.00  0.00    +0.090 A 
ATOM     12  N   LIG    1       -5.044   2.351   3.027  0.00  0.00    -0.231 NA
ATOM     13  C   LIG    1       -6.206   2.327   2.416  0.00  0.00    +0.129 A 
ATOM     14  N   LIG    1       -6.187   1.586   1.258  0.00  0.00    -0.340 N 
ATOM     15  H   LIG    1       -6.994   1.454   0.666  0.00  0.00    +0.167 HD
ATOM     16  C   LIG    1       -2.865   1.288   2.407  0.00  0.00    +0.038 A 
BRANCH  13  17
ATOM     17  C   LIG    1       -7.466   3.030   2.912  0.00  0.00    +0.142 C 
ATOM     18  N   LIG    1       -7.880   2.698   4.292  0.00  0.00    -0.290 N 
ATOM     19  C   LIG    1       -8.130   1.426   4.706  0.00  0.00    +0.239 C 
ATOM     20  O   LIG    1       -8.026   0.451   3.955  0.00  0.00    -0.273 OA
ATOM     21  C   LIG    1       -8.156   3.902   5.092  0.00  0.00    +0.108 C 
ATOM     22  C   LIG    1       -8.272   4.993   4.031  0.00  0.00    +0.021 C 
ATOM     23  C   LIG    1       -7.312   4.556   2.943  0.00  0.00    +0.032 C 
BRANCH  19  24
ATOM     24  C   LIG    1       -8.483   1.165   6.200  0.00  0.00    +0.190 C 
BRANCH  24  25
ATOM     25  N   LIG    1       -9.202  -0.109   6.401  0.00  0.00    -0.267 N 
ATOM     26  H   LIG    1       -8.666  -0.942   6.598  0.00  0.00    +0.153 HD
ATOM     27  C   LIG    1      -10.582  -0.197   6.255  0.00  0.00    +0.401 C 
ATOM     28  O   LIG    1      -11.348   0.726   5.962  0.00  0.00    -0.226 OA
BRANCH  27  29
ATOM     29  O   LIG    1      -10.962  -1.470   6.480  0.00  0.00    -0.454 OA
ATOM     30  C   LIG    1      -12.329  -1.847   6.388  0.00  0.00    +0.282 C 
ENDBRANCH  27  29
ENDBRANCH  24  25
BRANCH  24  31
ATOM     31  C   LIG    1       -7.234   1.277   7.121  0.00  0.00    +0.144 C 
ATOM     32  C   LIG    1       -7.603   1.291   8.621  0.00  0.00    +0.040 C 
BRANCH  31  33
ATOM     33  O   LIG    1       -6.385   0.166   6.821  0.00  0.00    -0.378 OA
ATOM     34  C   LIG    1       -5.040   0.277   7.268  0.00  0.00    +0.194 C 
ENDBRANCH  31  33
ENDBRANCH  24  31
ENDBRANCH  19  24
ENDBRANCH  13  17
ENDBRANCH   2   6
BRANCH   5  35
ATOM     35  C   LIG    1        2.149  -0.977   0.094  0.00  0.00    +0.010 A 
ATOM     36  C   LIG    1        2.851  -1.159  -1.109  0.00  0.00    +0.130 A 
ATOM     37  F   LIG    1        2.174  -1.389  -2.258  0.00  0.00    -0.205 F 
ATOM     38  C   LIG    1        4.245  -1.091  -1.176  0.00  0.00    +0.066 A 
ATOM     39  C   LIG    1        4.919  -0.818   0.014  0.00  0.00    +0.069 A 
ATOM     40  N   LIG    1        6.244  -0.647   0.340  0.00  0.00    -0.340 N 
ATOM     41  H   LIG    1        7.056  -0.680  -0.259  0.00  0.00    +0.167 HD
ATOM     42  C   LIG    1        6.305  -0.378   1.688  0.00  0.00    +0.129 A 
ATOM     43  N   LIG    1        5.124  -0.375   2.260  0.00  0.00    -0.231 NA
ATOM     44  C   LIG    1        4.244  -0.641   1.244  0.00  0.00    +0.090 A 
ATOM     45  C   LIG    1        2.848  -0.735   1.286  0.00  0.00    +0.038 A 
BRANCH  42  46
ATOM     46  C   LIG    1        7.627  -0.095   2.397  0.00  0.00    +0.142 C 
ATOM     47  C   LIG    1        7.718  -0.671   3.820  0.00  0.00    +0.032 C 
ATOM     48  C   LIG    1        7.398   0.498   4.729  0.00  0.00    +0.021 C 
ATOM     49  C   LIG    1        8.035   1.690   4.025  0.00  0.00    +0.108 C 
ATOM     50  N   LIG    1        7.933   1.339   2.601  0.00  0.00    -0.290 N 
ATOM     51  C   LIG    1        8.185   2.194   1.573  0.00  0.00    +0.239 C 
ATOM     52  O   LIG    1        8.113   1.856   0.389  0.00  0.00    -0.273 OA
BRANCH  51  53
ATOM     53  C   LIG    1        8.572   3.672   1.865  0.00  0.00    +0.190 C 
BRANCH  53  54
ATOM     54  N   LIG    1        9.937   3.929   1.372  0.00  0.00    -0.267 N 
ATOM     55  H   LIG    1       10.055   4.281   0.433  0.00  0.00    +0.153 HD
ATOM     56  C   LIG    1       11.056   3.684   2.160  0.00  0.00    +0.401 C 
ATOM     57  O   LIG    1       11.058   3.243   3.312  0.00  0.00    -0.226 OA
BRANCH  56  58
ATOM     58  O   LIG    1       12.159   4.005   1.457  0.00  0.00    -0.454 OA
ATOM     59  C   LIG    1       13.453   3.849   2.023  0.00  0.00    +0.282 C 
ENDBRANCH  56  58
ENDBRANCH  53  54
BRANCH  53  60
ATOM     60  C   LIG    1        7.564   4.695   1.262  0.00  0.00    +0.144 C 
ATOM     61  C   LIG    1        6.138   4.570   1.847  0.00  0.00    +0.040 C 
BRANCH  60  62
ATOM     62  O   LIG    1        8.099   5.995   1.530  0.00  0.00    -0.378 OA
ATOM     63  C   LIG    1        7.578   7.062   0.747  0.00  0.00    +0.194 C 
ENDBRANCH  60  62
ENDBRANCH  53  60
ENDBRANCH  51  53
ENDBRANCH  42  46
ENDBRANCH   5  35
BRANCH   1  64
ATOM     64  C   LIG    1        0.687   1.544   0.070  0.00  0.00    +0.036 A 
ATOM     65  C   LIG    1        1.409   2.309   0.993  0.00  0.00    +0.063 A 
ATOM     66  C   LIG    1        2.157   3.409   0.576  0.00  0.00    +0.149 A 
ATOM     67  F   LIG    1        2.855   4.113   1.499  0.00  0.00    -0.203 F 
ATOM     68  C   LIG    1        2.204   3.763  -0.779  0.00  0.00    +0.101 A 
ATOM     69  C   LIG    1        1.469   3.005  -1.704  0.00  0.00    +0.149 A 
ATOM     70  F   LIG    1        1.485   3.311  -3.023  0.00  0.00    -0.203 F 
ATOM     71  C   LIG    1        0.726   1.904  -1.279  0.00  0.00    +0.063 A 
BRANCH  68  72
ATOM     72  N   LIG    1        2.998   4.830  -1.172  0.00  0.00    -0.325 N 
ATOM     73  C   LIG    1        4.195   4.540  -1.974  0.00  0.00    +0.106 C 
ATOM     74  C   LIG    1        5.222   5.689  -1.943  0.00  0.00    +0.027 C 
ATOM     75  C   LIG    1        4.610   7.047  -2.341  0.00  0.00    +0.022 C 
ATOM     76  C   LIG    1        3.293   7.275  -1.563  0.00  0.00    +0.027 C 
ATOM     77  C   LIG    1        2.348   6.059  -1.646  0.00  0.00    +0.106 C 
BRANCH  75  78
ATOM     78  C   LIG    1        5.638   8.187  -2.272  0.00  0.00    -0.044 A 
ATOM     79  C   LIG    1        6.705   8.182  -3.179  0.00  0.00    +0.007 A 
ATOM     80  C   LIG    1        7.670   9.185  -3.142  0.00  0.00    +0.038 A 
ATOM     81  C   LIG    1        7.571  10.202  -2.197  0.00  0.00    +0.123 A 
ATOM     82  F   LIG    1        8.508  11.177  -2.159  0.00  0.00    -0.205 F 
ATOM     83  C   LIG    1        6.515  10.223  -1.291  0.00  0.00    +0.038 A 
ATOM     84  C   LIG    1        5.550   9.220  -1.327  0.00  0.00    +0.007 A 
ENDBRANCH  75  78
ENDBRANCH  68  72
ENDBRANCH   1  64
TORSDOF 17
