REMARK  Name = DB13747
REMARK                            x       y       z     vdW  Elec       q    Type
REMARK                         _______ _______ _______ _____ _____    ______ ____
ROOT
ATOM      1  N   LIG    1       -0.050   0.084  -0.192  0.00  0.00    -0.296 NA
ENDROOT
BRANCH   1   2
ATOM      2  C   LIG    1       -0.953  -0.560   0.777  0.00  0.00    +0.112 C 
BRANCH   2   3
ATOM      3  C   LIG    1       -0.983  -2.106   0.767  0.00  0.00    +0.171 C 
BRANCH   3   4
ATOM      4  O   LIG    1        0.132  -2.698   1.400  0.00  0.00    -0.394 OA
ATOM      5  H   LIG    1        0.029  -3.652   1.372  0.00  0.00    +0.209 HD
ENDBRANCH   3   4
ENDBRANCH   2   3
ENDBRANCH   1   2
BRANCH   1   6
ATOM      6  C   LIG    1       -0.245   1.541  -0.288  0.00  0.00    +0.112 C 
BRANCH   6   7
ATOM      7  C   LIG    1       -1.563   2.012  -0.944  0.00  0.00    +0.171 C 
BRANCH   7   8
ATOM      8  O   LIG    1       -2.673   1.947  -0.072  0.00  0.00    -0.394 OA
ATOM      9  H   LIG    1       -3.450   2.255  -0.543  0.00  0.00    +0.209 HD
ENDBRANCH   7   8
ENDBRANCH   6   7
ENDBRANCH   1   6
BRANCH   1  10
ATOM     10  C   LIG    1        1.370  -0.263  -0.004  0.00  0.00    +0.112 C 
BRANCH  10  11
ATOM     11  C   LIG    1        2.118   0.363   1.200  0.00  0.00    +0.171 C 
BRANCH  11  12
ATOM     12  O   LIG    1        1.670  -0.129   2.446  0.00  0.00    -0.394 OA
ATOM     13  H   LIG    1        2.192   0.277   3.142  0.00  0.00    +0.209 HD
ENDBRANCH  11  12
ENDBRANCH  10  11
ENDBRANCH   1  10
TORSDOF 9
