REMARK  Name = DB13010
REMARK                            x       y       z     vdW  Elec       q    Type
REMARK                         _______ _______ _______ _____ _____    ______ ____
ROOT
ATOM      1  C   LIG    1        3.961  -1.162  -0.026  0.00  0.00    +0.123 C 
ATOM      2  N   LIG    1        4.550  -1.026   1.155  0.00  0.00    -0.382 N 
ATOM      3  H   LIG    1        4.015  -1.158   2.001  0.00  0.00    +0.158 HD
ATOM      4  H   LIG    1        5.534  -0.803   1.207  0.00  0.00    +0.158 HD
ENDROOT
BRANCH   1   5
ATOM      5  N   LIG    1        4.617  -1.018  -1.169  0.00  0.00    -0.340 N 
ATOM      6  H   LIG    1        4.130  -1.139  -2.046  0.00  0.00    +0.144 HD
ATOM      7  H   LIG    1        5.602  -0.793  -1.162  0.00  0.00    +0.144 HD
ENDBRANCH   1   5
BRANCH   1   8
ATOM      8  S   LIG    1        2.277  -1.556  -0.077  0.00  0.00    -0.093 S 
BRANCH   8   9
ATOM      9  C   LIG    1        1.495   0.081  -0.014  0.00  0.00    +0.078 C 
BRANCH   9  10
ATOM     10  C   LIG    1       -0.041   0.048  -0.015  0.00  0.00    +0.026 C 
BRANCH  10  11
ATOM     11  C   LIG    1       -0.663   1.452  -0.001  0.00  0.00    +0.119 C 
BRANCH  11  12
ATOM     12  C   LIG    1       -2.134   1.426   0.005  0.00  0.00    +0.063 C 
ATOM     13  N   LIG    1       -3.291   1.406   0.009  0.00  0.00    -0.197 NA
ENDBRANCH  11  12
ENDBRANCH  10  11
ENDBRANCH   9  10
ENDBRANCH   8   9
ENDBRANCH   1   8
TORSDOF 6
