REMARK  Name = DB13122
REMARK                            x       y       z     vdW  Elec       q    Type
REMARK                         _______ _______ _______ _____ _____    ______ ____
ROOT
ATOM      1  C   LIG    1       -2.032   2.060  -1.735  0.00  0.00    +0.225 A 
ATOM      2  N   LIG    1       -0.820   1.508  -1.461  0.00  0.00    -0.216 NA
ATOM      3  C   LIG    1       -0.863   0.616  -0.461  0.00  0.00    +0.167 A 
ATOM      4  N   LIG    1        0.158  -0.137   0.098  0.00  0.00    -0.286 N 
ATOM      5  C   LIG    1       -0.450  -0.850   1.114  0.00  0.00    +0.203 A 
ATOM      6  N   LIG    1       -1.738  -0.653   1.242  0.00  0.00    -0.231 NA
ATOM      7  C   LIG    1       -2.027   0.268   0.271  0.00  0.00    +0.147 A 
ATOM      8  C   LIG    1       -3.225   0.905  -0.103  0.00  0.00    +0.150 A 
ATOM      9  N   LIG    1       -3.219   1.810  -1.123  0.00  0.00    -0.219 NA
ENDROOT
BRANCH   4  10
ATOM     10  C   LIG    1        1.560  -0.152  -0.266  0.00  0.00    +0.253 C 
ATOM     11  O   LIG    1        2.113   1.101  -0.002  0.00  0.00    -0.344 OA
ATOM     12  C   LIG    1        3.180   1.400  -0.900  0.00  0.00    +0.192 C 
ATOM     13  C   LIG    1        3.268   0.170  -1.820  0.00  0.00    +0.179 C 
ATOM     14  C   LIG    1        1.868  -0.437  -1.736  0.00  0.00    +0.195 C 
BRANCH  13  15
ATOM     15  O   LIG    1        4.304  -0.715  -1.421  0.00  0.00    -0.386 OA
ATOM     16  H   LIG    1        4.274  -1.493  -1.983  0.00  0.00    +0.210 HD
ENDBRANCH  13  15
BRANCH  14  17
ATOM     17  O   LIG    1        1.745  -1.820  -2.018  0.00  0.00    -0.385 OA
ATOM     18  H   LIG    1        2.352  -2.303  -1.452  0.00  0.00    +0.210 HD
ENDBRANCH  14  17
BRANCH  12  19
ATOM     19  C   LIG    1        2.826   2.714  -1.619  0.00  0.00    +0.301 C 
BRANCH  19  20
ATOM     20  O   LIG    1        2.729   3.767  -0.653  0.00  0.00    -0.352 OA
BRANCH  20  21
ATOM     21  N   LIG    1        2.357   5.039  -1.194  0.00  0.00    +0.171 N 
ATOM     22  O   LIG    1        2.277   5.893  -0.345  0.00  0.00    -0.094 OA
BRANCH  21  23
ATOM     23  O   LIG    1        2.175   5.115  -2.389  0.00  0.00    -0.370 OA
ATOM     24  H   LIG    1        2.275   4.355  -2.928  0.00  0.00    +0.332 HD
ENDBRANCH  21  23
ENDBRANCH  20  21
ENDBRANCH  19  20
ENDBRANCH  12  19
ENDBRANCH   4  10
BRANCH   8  25
ATOM     25  N   LIG    1       -4.420   0.607   0.576  0.00  0.00    -0.324 N 
ATOM     26  H   LIG    1       -4.402  -0.071   1.325  0.00  0.00    +0.148 HD
BRANCH  25  27
ATOM     27  C   LIG    1       -5.688   1.266   0.266  0.00  0.00    +0.072 C 
ATOM     28  C   LIG    1       -6.872   0.580   0.982  0.00  0.00    +0.022 C 
ATOM     29  C   LIG    1       -7.746   1.711   1.529  0.00  0.00    +0.002 C 
ATOM     30  C   LIG    1       -6.749   2.819   1.855  0.00  0.00    +0.002 C 
ATOM     31  C   LIG    1       -5.732   2.746   0.713  0.00  0.00    +0.022 C 
ENDBRANCH  25  27
ENDBRANCH   8  25
TORSDOF 9
