REMARK  Name = DB13054
REMARK                            x       y       z     vdW  Elec       q    Type
REMARK                         _______ _______ _______ _____ _____    ______ ____
ROOT
ATOM      1  N   LIG    1        0.128  -0.395   0.214  0.00  0.00    -0.282 N 
ATOM      2  C   LIG    1       -0.826  -1.366   0.414  0.00  0.00    +0.240 C 
ATOM      3  O   LIG    1       -0.527  -2.538   0.652  0.00  0.00    -0.271 OA
ENDROOT
BRANCH   2   4
ATOM      4  C   LIG    1       -2.225  -0.976   0.354  0.00  0.00    +0.068 C 
ATOM      5  C   LIG    1       -3.212  -1.856   0.074  0.00  0.00    +0.013 C 
BRANCH   5   6
ATOM      6  C   LIG    1       -4.656  -1.550  -0.026  0.00  0.00    -0.025 A 
ATOM      7  C   LIG    1       -5.559  -2.612  -0.089  0.00  0.00    +0.008 A 
ATOM      8  C   LIG    1       -6.926  -2.372  -0.191  0.00  0.00    +0.005 A 
ATOM      9  C   LIG    1       -7.427  -1.063  -0.233  0.00  0.00    -0.042 A 
ATOM     10  C   LIG    1       -6.513   0.000  -0.162  0.00  0.00    +0.005 A 
ATOM     11  C   LIG    1       -5.146  -0.240  -0.060  0.00  0.00    +0.008 A 
BRANCH   9  12
ATOM     12  C   LIG    1       -8.956  -0.836  -0.357  0.00  0.00    -0.013 C 
ATOM     13  C   LIG    1       -9.678  -1.480   0.852  0.00  0.00    +0.015 C 
ATOM     14  C   LIG    1       -9.355   0.663  -0.394  0.00  0.00    +0.015 C 
ATOM     15  C   LIG    1       -9.474  -1.485  -1.665  0.00  0.00    +0.015 C 
ENDBRANCH   9  12
ENDBRANCH   5   6
ENDBRANCH   2   4
BRANCH   1  16
ATOM     16  C   LIG    1       -0.202   1.035  -0.009  0.00  0.00    +0.144 C 
BRANCH  16  20
ATOM     17  C   LIG    1       -0.669   3.613   3.471  0.00  0.00    +0.030 A 
ATOM     18  C   LIG    1       -0.793   2.221   3.598  0.00  0.00    +0.023 A 
ATOM     19  C   LIG    1       -0.650   1.381   2.498  0.00  0.00    +0.007 A 
ATOM     20  C   LIG    1       -0.372   1.912   1.235  0.00  0.00    -0.030 A 
ATOM     21  C   LIG    1       -0.226   3.291   1.097  0.00  0.00    +0.007 A 
ATOM     22  C   LIG    1       -0.368   4.129   2.200  0.00  0.00    +0.023 A 
BRANCH  17  28
ATOM     23  C   LIG    1       -3.405   6.880   8.135  0.00  0.00    +0.109 C 
ATOM     24  C   LIG    1       -2.261   7.247   7.184  0.00  0.00    +0.213 C 
ATOM     25  N   LIG    1       -1.405   6.279   6.760  0.00  0.00    -0.299 N 
ATOM     26  C   LIG    1       -0.274   6.597   5.883  0.00  0.00    +0.126 C 
ATOM     27  C   LIG    1       -0.473   5.883   4.527  0.00  0.00    +0.124 C 
ATOM     28  N   LIG    1       -0.805   4.446   4.589  0.00  0.00    -0.327 N 
ATOM     29  C   LIG    1       -1.816   4.149   5.624  0.00  0.00    +0.124 C 
ATOM     30  C   LIG    1       -1.626   4.847   6.989  0.00  0.00    +0.126 C 
ATOM     31  O   LIG    1       -2.126   8.436   6.890  0.00  0.00    -0.276 OA
ENDBRANCH  17  28
ENDBRANCH  16  20
ENDBRANCH   1  16
BRANCH   1  32
ATOM     32  C   LIG    1        1.600  -0.652   0.279  0.00  0.00    +0.167 C 
BRANCH  32  33
ATOM     33  C   LIG    1        2.099  -1.790  -0.667  0.00  0.00    +0.236 C 
ATOM     34  N   LIG    1        2.226  -1.565  -2.004  0.00  0.00    -0.303 N 
ATOM     35  C   LIG    1        1.982  -0.269  -2.666  0.00  0.00    +0.089 C 
ATOM     36  C   LIG    1        3.291   0.192  -3.346  0.00  0.00    -0.059 C 
ATOM     37  N   LIG    1        3.785  -0.890  -4.334  0.00  0.00    +0.384 N 
ATOM     38  H   LIG    1        3.070  -1.040  -5.031  0.00  0.00    -0.081 HD
ATOM     39  C   LIG    1        3.992  -2.218  -3.574  0.00  0.00    -0.059 C 
ATOM     40  C   LIG    1        2.667  -2.648  -2.908  0.00  0.00    +0.089 C 
ATOM     41  O   LIG    1        2.332  -2.888  -0.157  0.00  0.00    -0.274 OA
BRANCH  37  42
ATOM     42  C   LIG    1        5.093  -0.468  -5.044  0.00  0.00    -0.043 C 
BRANCH  42  43
ATOM     43  C   LIG    1        4.966   0.780  -5.907  0.00  0.00    -0.064 A 
ATOM     44  C   LIG    1        4.384   0.692  -7.174  0.00  0.00    +0.003 A 
ATOM     45  C   LIG    1        4.271   1.830  -7.968  0.00  0.00    +0.019 A 
ATOM     46  C   LIG    1        4.747   3.056  -7.498  0.00  0.00    +0.052 A 
ATOM     47  C   LIG    1        5.339   3.144  -6.236  0.00  0.00    +0.019 A 
ATOM     48  C   LIG    1        5.451   2.005  -5.442  0.00  0.00    +0.003 A 
BRANCH  46  49
ATOM     49  C   LIG    1        4.627   4.246  -8.326  0.00  0.00    +0.099 C 
ATOM     50  N   LIG    1        4.531   5.193  -8.985  0.00  0.00    -0.191 NA
ENDBRANCH  46  49
ENDBRANCH  42  43
ENDBRANCH  37  42
ENDBRANCH  32  33
BRANCH  32  51
ATOM     51  C   LIG    1        2.042  -0.855   1.757  0.00  0.00    +0.067 C 
BRANCH  51  52
ATOM     52  C   LIG    1        3.538  -1.010   1.990  0.00  0.00    -0.045 A 
ATOM     53  C   LIG    1        4.403   0.080   1.758  0.00  0.00    +0.004 A 
ATOM     54  C   LIG    1        5.774  -0.075   1.918  0.00  0.00    +0.000 A 
ATOM     55  C   LIG    1        6.300  -1.306   2.292  0.00  0.00    +0.000 A 
ATOM     56  C   LIG    1        5.462  -2.393   2.504  0.00  0.00    +0.000 A 
ATOM     57  C   LIG    1        4.088  -2.259   2.350  0.00  0.00    +0.004 A 
ENDBRANCH  51  52
ENDBRANCH  32  51
ENDBRANCH   1  32
TORSDOF 13
