REMARK  Name = DB13270
REMARK                            x       y       z     vdW  Elec       q    Type
REMARK                         _______ _______ _______ _____ _____    ______ ____
ROOT
ATOM      1  C   LIG    1       -1.847  -0.881   1.232  0.00  0.00    +0.169 C 
ATOM      2  C   LIG    1       -0.466  -0.211   0.969  0.00  0.00    +0.175 C 
ATOM      3  C   LIG    1       -0.187   0.140  -0.526  0.00  0.00    +0.169 C 
ATOM      4  C   LIG    1       -0.587  -1.004  -1.495  0.00  0.00    +0.084 C 
ATOM      5  C   LIG    1       -2.012  -1.508  -1.212  0.00  0.00    +0.042 C 
ATOM      6  C   LIG    1       -2.153  -2.021   0.231  0.00  0.00    +0.084 C 
ENDROOT
BRANCH   4   7
ATOM      7  N   LIG    1       -0.414  -0.652  -2.895  0.00  0.00    -0.325 NA
ATOM      8  H   LIG    1       -1.023   0.119  -3.131  0.00  0.00    +0.119 HD
ATOM      9  H   LIG    1       -0.693  -1.428  -3.478  0.00  0.00    +0.119 HD
ENDBRANCH   4   7
BRANCH   6  10
ATOM     10  N   LIG    1       -3.450  -2.639   0.445  0.00  0.00    -0.325 NA
ATOM     11  H   LIG    1       -3.607  -3.351  -0.254  0.00  0.00    +0.119 HD
ATOM     12  H   LIG    1       -4.179  -1.951   0.322  0.00  0.00    +0.119 HD
ENDBRANCH   6  10
BRANCH   2  13
ATOM     13  O   LIG    1       -0.367   0.951   1.770  0.00  0.00    -0.387 OA
ATOM     14  H   LIG    1       -0.728   0.751   2.637  0.00  0.00    +0.210 HD
ENDBRANCH   2  13
BRANCH   1  15
ATOM     15  O   LIG    1       -1.854  -1.420   2.559  0.00  0.00    -0.342 OA
BRANCH  15  20
ATOM     16  C   LIG    1       -4.402  -2.091   3.834  0.00  0.00    +0.135 C 
ATOM     17  C   LIG    1       -3.878  -2.645   5.177  0.00  0.00    +0.034 C 
ATOM     18  C   LIG    1       -2.358  -2.494   5.280  0.00  0.00    +0.026 C 
ATOM     19  C   LIG    1       -1.922  -1.064   4.929  0.00  0.00    +0.107 C 
ATOM     20  C   LIG    1       -2.483  -0.657   3.554  0.00  0.00    +0.268 C 
ATOM     21  O   LIG    1       -3.883  -0.790   3.513  0.00  0.00    -0.345 OA
BRANCH  19  22
ATOM     22  N   LIG    1       -0.489  -0.858   5.057  0.00  0.00    -0.323 NA
ATOM     23  H   LIG    1       -0.205  -1.081   6.000  0.00  0.00    +0.119 HD
ATOM     24  H   LIG    1       -0.275   0.121   4.930  0.00  0.00    +0.119 HD
ENDBRANCH  19  22
BRANCH  16  25
ATOM     25  C   LIG    1       -5.941  -2.088   3.715  0.00  0.00    +0.109 C 
BRANCH  25  26
ATOM     26  N   LIG    1       -6.570  -1.218   4.694  0.00  0.00    -0.328 NA
ATOM     27  H   LIG    1       -6.366  -1.550   5.626  0.00  0.00    +0.118 HD
ATOM     28  H   LIG    1       -7.574  -1.258   4.590  0.00  0.00    +0.118 HD
ENDBRANCH  25  26
ENDBRANCH  16  25
ENDBRANCH  15  20
ENDBRANCH   1  15
BRANCH   3  29
ATOM     29  O   LIG    1        1.197   0.400  -0.798  0.00  0.00    -0.341 OA
BRANCH  29  30
ATOM     30  C   LIG    1        1.770   1.604  -0.358  0.00  0.00    +0.281 C 
ATOM     31  O   LIG    1        2.260   1.513   0.955  0.00  0.00    -0.341 OA
ATOM     32  C   LIG    1        3.203   0.452   1.161  0.00  0.00    +0.177 C 
ATOM     33  C   LIG    1        4.451   0.674   0.272  0.00  0.00    +0.165 C 
ATOM     34  C   LIG    1        4.082   0.945  -1.208  0.00  0.00    +0.116 C 
ATOM     35  C   LIG    1        2.923   1.972  -1.306  0.00  0.00    +0.189 C 
BRANCH  34  36
ATOM     36  N   LIG    1        5.242   1.354  -1.991  0.00  0.00    -0.323 NA
ATOM     37  H   LIG    1        5.982   0.677  -1.875  0.00  0.00    +0.119 HD
ATOM     38  H   LIG    1        5.599   2.230  -1.637  0.00  0.00    +0.119 HD
ENDBRANCH  34  36
BRANCH  33  39
ATOM     39  O   LIG    1        5.381  -0.390   0.384  0.00  0.00    -0.388 OA
ATOM     40  H   LIG    1        5.002  -1.169  -0.032  0.00  0.00    +0.210 HD
ENDBRANCH  33  39
BRANCH  35  41
ATOM     41  O   LIG    1        2.439   2.120  -2.630  0.00  0.00    -0.385 OA
ATOM     42  H   LIG    1        1.827   2.859  -2.651  0.00  0.00    +0.210 HD
ENDBRANCH  35  41
BRANCH  32  43
ATOM     43  C   LIG    1        3.543   0.395   2.666  0.00  0.00    +0.190 C 
BRANCH  43  44
ATOM     44  O   LIG    1        2.401   0.062   3.431  0.00  0.00    -0.392 OA
ATOM     45  H   LIG    1        2.135  -0.834   3.212  0.00  0.00    +0.210 HD
ENDBRANCH  43  44
ENDBRANCH  32  43
ENDBRANCH  29  30
ENDBRANCH   3  29
TORSDOF 15
