REMARK  Name = DB13097
REMARK                            x       y       z     vdW  Elec       q    Type
REMARK                         _______ _______ _______ _____ _____    ______ ____
ROOT
ATOM      1  C   LIG    1        3.334  -1.731  -0.014  0.00  0.00    -0.002 C 
ATOM      2  C   LIG    1        3.931  -3.182   0.029  0.00  0.00    -0.022 C 
ATOM      3  C   LIG    1        3.045  -4.138   0.890  0.00  0.00    +0.012 C 
ATOM      4  C   LIG    1        4.252  -3.795  -1.364  0.00  0.00    +0.008 C 
ATOM      5  C   LIG    1        5.095  -5.085  -1.242  0.00  0.00    +0.005 C 
ATOM      6  C   LIG    1        6.394  -4.875  -0.424  0.00  0.00    +0.031 C 
ATOM      7  C   LIG    1        6.111  -4.174   0.915  0.00  0.00    -0.066 C 
ATOM      8  C   LIG    1        6.505  -4.609   2.135  0.00  0.00    -0.000 C 
ATOM      9  C   LIG    1        5.303  -2.885   0.694  0.00  0.00    +0.021 C 
ATOM     10  C   LIG    1        4.978  -1.941   1.854  0.00  0.00    +0.009 C 
ATOM     11  C   LIG    1        3.845  -1.068   1.299  0.00  0.00    +0.005 C 
ENDROOT
BRANCH   8  12
ATOM     12  C   LIG    1        7.265  -5.821   2.418  0.00  0.00    +0.004 C 
ATOM     13  C   LIG    1        7.685  -6.232   3.639  0.00  0.00    -0.040 C 
ATOM     14  C   LIG    1        7.475  -5.487   4.883  0.00  0.00    -0.023 C 
ATOM     15  C   LIG    1        7.892  -4.214   5.032  0.00  0.00    +0.015 C 
ATOM     16  C   LIG    1        6.814  -6.253   6.028  0.00  0.00    +0.147 C 
ATOM     17  C   LIG    1        7.561  -7.594   6.234  0.00  0.00    +0.067 C 
ATOM     18  C   LIG    1        7.756  -8.395   4.922  0.00  0.00    +0.122 C 
ATOM     19  C   LIG    1        8.428  -7.556   3.807  0.00  0.00    +0.067 C 
BRANCH  16  20
ATOM     20  O   LIG    1        5.446  -6.473   5.744  0.00  0.00    -0.387 OA
ATOM     21  H   LIG    1        4.990  -5.628   5.769  0.00  0.00    +0.210 HD
ENDBRANCH  16  20
BRANCH  18  22
ATOM     22  O   LIG    1        8.484  -9.582   5.163  0.00  0.00    -0.391 OA
ATOM     23  H   LIG    1        9.357  -9.344   5.485  0.00  0.00    +0.210 HD
ENDBRANCH  18  22
ENDBRANCH   8  12
BRANCH   1  24
ATOM     24  C   LIG    1        1.791  -1.555  -0.233  0.00  0.00    -0.010 C 
ATOM     25  C   LIG    1        1.269  -2.272  -1.500  0.00  0.00    +0.008 C 
BRANCH  24  26
ATOM     26  C   LIG    1        1.391  -0.051  -0.264  0.00  0.00    +0.004 C 
BRANCH  26  27
ATOM     27  C   LIG    1       -0.122   0.228  -0.099  0.00  0.00    +0.004 C 
BRANCH  27  28
ATOM     28  C   LIG    1       -0.514   1.733   0.003  0.00  0.00    -0.009 C 
BRANCH  28  29
ATOM     29  C   LIG    1       -0.169   2.554  -1.288  0.00  0.00    -0.014 C 
ATOM     30  C   LIG    1       -0.677   1.892  -2.588  0.00  0.00    +0.007 C 
ATOM     31  C   LIG    1       -0.679   4.012  -1.234  0.00  0.00    +0.007 C 
ENDBRANCH  28  29
BRANCH  28  33
ATOM     32  C   LIG    1       -0.250   1.662   2.610  0.00  0.00    +0.004 C 
ATOM     33  C   LIG    1        0.036   2.408   1.295  0.00  0.00    +0.000 C 
ENDBRANCH  28  33
ENDBRANCH  27  28
ENDBRANCH  26  27
ENDBRANCH  24  26
ENDBRANCH   1  24
TORSDOF 9
