REMARK  Name = DB13032
REMARK                            x       y       z     vdW  Elec       q    Type
REMARK                         _______ _______ _______ _____ _____    ______ ____
ROOT
ATOM      1  C   LIG    1       -5.255  -0.669   0.023  0.00  0.00    +0.088 C 
ATOM      2  C   LIG    1       -4.292   0.503  -0.012  0.00  0.00    +0.130 A 
ATOM      3  N   LIG    1       -2.966   0.216  -0.044  0.00  0.00    -0.198 NA
ATOM      4  C   LIG    1       -2.120   1.286  -0.073  0.00  0.00    +0.218 A 
ATOM      5  C   LIG    1       -2.594   2.602  -0.073  0.00  0.00    +0.095 A 
ATOM      6  C   LIG    1       -3.985   2.806  -0.043  0.00  0.00    +0.078 A 
ATOM      7  N   LIG    1       -4.842   1.743  -0.006  0.00  0.00    -0.232 NA
ENDROOT
BRANCH   6   8
ATOM      8  C   LIG    1       -4.603   4.174  -0.029  0.00  0.00    +0.001 A 
ATOM      9  C   LIG    1       -5.918   4.374   0.426  0.00  0.00    +0.013 A 
ATOM     10  C   LIG    1       -6.489   5.644   0.438  0.00  0.00    +0.039 A 
ATOM     11  C   LIG    1       -5.752   6.736  -0.009  0.00  0.00    +0.123 A 
ATOM     12  F   LIG    1       -6.305   7.970   0.000  0.00  0.00    -0.205 F 
ATOM     13  C   LIG    1       -4.450   6.564  -0.467  0.00  0.00    +0.039 A 
ATOM     14  C   LIG    1       -3.883   5.293  -0.477  0.00  0.00    +0.013 A 
ENDBRANCH   6   8
BRANCH   4  15
ATOM     15  O   LIG    1       -0.753   1.078  -0.097  0.00  0.00    -0.476 OA
BRANCH  15  16
ATOM     16  C   LIG    1       -0.240  -0.254  -0.071  0.00  0.00    +0.231 C 
BRANCH  16  17
ATOM     17  C   LIG    1        1.294  -0.191  -0.037  0.00  0.00    +0.041 C 
BRANCH  17  18
ATOM     18  C   LIG    1        1.953  -1.580   0.031  0.00  0.00    +0.001 C 
BRANCH  18  19
ATOM     19  C   LIG    1        3.488  -1.512   0.105  0.00  0.00    -0.018 C 
BRANCH  19  20
ATOM     20  C   LIG    1        4.132  -2.908   0.199  0.00  0.00    -0.079 C 
BRANCH  20  21
ATOM     21  N   LIG    1        5.677  -2.829   0.124  0.00  0.00    +0.380 N 
ATOM     22  H   LIG    1        5.933  -2.256  -0.669  0.00  0.00    -0.082 HD
ATOM     23  C   LIG    1        6.284  -2.194   1.401  0.00  0.00    -0.079 C 
ATOM     24  C   LIG    1        7.814  -2.119   1.254  0.00  0.00    -0.019 C 
ATOM     25  C   LIG    1        8.437  -3.494   0.960  0.00  0.00    -0.004 C 
ATOM     26  C   LIG    1        7.782  -4.158  -0.262  0.00  0.00    -0.019 C 
ATOM     27  C   LIG    1        6.252  -4.245  -0.121  0.00  0.00    -0.079 C 
ENDBRANCH  20  21
ENDBRANCH  19  20
ENDBRANCH  18  19
ENDBRANCH  17  18
ENDBRANCH  16  17
ENDBRANCH  15  16
ENDBRANCH   4  15
TORSDOF 8
