REMARK  Name = DB13444
REMARK                            x       y       z     vdW  Elec       q    Type
REMARK                         _______ _______ _______ _____ _____    ______ ____
ROOT
ATOM      1  C   LIG    1       -2.115   1.212   0.010  0.00  0.00    +0.061 A 
ATOM      2  C   LIG    1       -0.716   1.220   0.117  0.00  0.00    +0.049 A 
ATOM      3  I   LIG    1        0.308   3.068   0.235  0.00  0.00    -0.041 I 
ATOM      4  C   LIG    1       -0.014   0.000   0.139  0.00  0.00    +0.065 A 
ATOM      5  C   LIG    1       -0.714  -1.220   0.039  0.00  0.00    +0.042 A 
ATOM      6  I   LIG    1        0.343  -3.057   0.071  0.00  0.00    -0.042 I 
ATOM      7  C   LIG    1       -2.118  -1.214  -0.085  0.00  0.00    +0.088 A 
ATOM      8  C   LIG    1       -2.821   0.004  -0.105  0.00  0.00    +0.051 A 
ATOM      9  I   LIG    1       -4.925   0.045  -0.313  0.00  0.00    -0.041 I 
ENDROOT
BRANCH   1  12
ATOM     10  C   LIG    1       -4.023   4.354   0.883  0.00  0.00    +0.109 C 
ATOM     11  C   LIG    1       -3.282   3.039   1.100  0.00  0.00    +0.214 C 
ATOM     12  N   LIG    1       -2.815   2.427  -0.007  0.00  0.00    -0.284 N 
ATOM     13  H   LIG    1       -2.972   2.854  -0.908  0.00  0.00    +0.155 HD
ATOM     14  O   LIG    1       -3.144   2.602   2.244  0.00  0.00    -0.276 OA
ENDBRANCH   1  12
BRANCH   4  15
ATOM     15  C   LIG    1        1.484   0.002   0.264  0.00  0.00    +0.246 C 
ATOM     16  N   LIG    1        1.938  -0.007   1.530  0.00  0.00    -0.309 N 
ATOM     17  H   LIG    1        1.264  -0.040   2.281  0.00  0.00    +0.149 HD
ATOM     18  O   LIG    1        2.200   0.011  -0.738  0.00  0.00    -0.270 OA
BRANCH  16  19
ATOM     19  C   LIG    1        3.348  -0.000   1.921  0.00  0.00    +0.132 C 
BRANCH  19  20
ATOM     20  C   LIG    1        3.941   1.405   2.150  0.00  0.00    +0.174 C 
BRANCH  20  21
ATOM     21  O   LIG    1        3.912   2.190   0.975  0.00  0.00    -0.393 OA
ATOM     22  H   LIG    1        4.263   3.060   1.179  0.00  0.00    +0.209 HD
ENDBRANCH  20  21
ENDBRANCH  19  20
ENDBRANCH  16  19
ENDBRANCH   4  15
BRANCH   7  23
ATOM     23  C   LIG    1       -2.869  -2.511  -0.197  0.00  0.00    +0.339 C 
ATOM     24  O   LIG    1       -3.103  -3.039  -1.282  0.00  0.00    -0.245 OA
BRANCH  23  25
ATOM     25  O   LIG    1       -3.256  -3.024   1.006  0.00  0.00    -0.477 OA
ATOM     26  H   LIG    1       -3.734  -3.850   0.911  0.00  0.00    +0.295 HD
ENDBRANCH  23  25
ENDBRANCH   7  23
TORSDOF 7
