REMARK  Name = DB13180
REMARK                            x       y       z     vdW  Elec       q    Type
REMARK                         _______ _______ _______ _____ _____    ______ ____
ROOT
ATOM      1  C   LIG    1        1.552  -0.007  -0.025  0.00  0.00    +0.185 C 
ENDROOT
BRANCH   1   2
ATOM      2  O   LIG    1        2.085   0.661   1.111  0.00  0.00    -0.386 OA
ATOM      3  H   LIG    1        1.734   0.250   1.904  0.00  0.00    +0.210 HD
ENDBRANCH   1   2
BRANCH   1   4
ATOM      4  C   LIG    1       -0.009  -0.047   0.095  0.00  0.00    +0.177 C 
BRANCH   4   5
ATOM      5  O   LIG    1       -0.550   1.254  -0.076  0.00  0.00    -0.386 OA
ATOM      6  H   LIG    1       -0.248   1.605  -0.918  0.00  0.00    +0.210 HD
ENDBRANCH   4   5
BRANCH   4   7
ATOM      7  C   LIG    1       -0.563  -0.673   1.409  0.00  0.00    +0.171 C 
BRANCH   7   8
ATOM      8  O   LIG    1       -0.002  -1.964   1.591  0.00  0.00    -0.387 OA
ATOM      9  H   LIG    1        0.955  -1.886   1.596  0.00  0.00    +0.210 HD
ENDBRANCH   7   8
BRANCH   7  10
ATOM     10  C   LIG    1       -2.105  -0.805   1.432  0.00  0.00    +0.189 C 
BRANCH  10  11
ATOM     11  O   LIG    1       -2.569  -1.182   2.715  0.00  0.00    -0.392 OA
ATOM     12  H   LIG    1       -2.265  -2.075   2.896  0.00  0.00    +0.210 HD
ENDBRANCH  10  11
ENDBRANCH   7  10
ENDBRANCH   4   7
ENDBRANCH   1   4
BRANCH   1  13
ATOM     13  C   LIG    1        2.117   0.671  -1.313  0.00  0.00    +0.254 C 
BRANCH  13  14
ATOM     14  C   LIG    1        1.564   0.059  -2.615  0.00  0.00    +0.336 C 
ATOM     15  O   LIG    1        0.798   0.667  -3.359  0.00  0.00    -0.248 OA
BRANCH  14  16
ATOM     16  O   LIG    1        1.981  -1.227  -2.818  0.00  0.00    -0.479 OA
ATOM     17  H   LIG    1        1.625  -1.604  -3.625  0.00  0.00    +0.295 HD
ENDBRANCH  14  16
ENDBRANCH  13  14
BRANCH  13  18
ATOM     18  O   LIG    1        3.533   0.566  -1.350  0.00  0.00    -0.378 OA
ATOM     19  H   LIG    1        3.864   1.127  -2.055  0.00  0.00    +0.211 HD
ENDBRANCH  13  18
ENDBRANCH   1  13
TORSDOF 11
