REMARK  Name = DB13107
REMARK                            x       y       z     vdW  Elec       q    Type
REMARK                         _______ _______ _______ _____ _____    ______ ____
ROOT
ATOM      1  S   LIG    1        0.186   0.192   1.108  0.00  0.00    -0.095 S 
ENDROOT
BRANCH   1   2
ATOM      2  C   LIG    1       -0.378   1.846   0.589  0.00  0.00    +0.065 C 
BRANCH   2   3
ATOM      3  C   LIG    1       -0.466   2.157  -0.924  0.00  0.00    -0.063 C 
BRANCH   3   4
ATOM      4  N   LIG    1       -1.428   1.166  -1.605  0.00  0.00    +0.381 N 
ATOM      5  H   LIG    1       -1.458   1.342  -2.600  0.00  0.00    -0.090 HD
ATOM      6  H   LIG    1       -1.120   0.217  -1.450  0.00  0.00    -0.090 HD
ATOM      7  H   LIG    1       -2.360   1.273  -1.230  0.00  0.00    -0.090 HD
ENDBRANCH   3   4
BRANCH   3   8
ATOM      8  C   LIG    1       -0.923   3.609  -1.207  0.00  0.00    +0.010 C 
BRANCH   8   9
ATOM      9  C   LIG    1       -0.841   4.040  -2.688  0.00  0.00    +0.196 C 
BRANCH   9  10
ATOM     10  S   LIG    1       -1.448   5.822  -2.896  0.00  0.00    +0.080 S 
ATOM     11  O   LIG    1       -0.555   6.602  -2.033  0.00  0.00    -0.147 OA
ATOM     12  O   LIG    1       -2.843   5.768  -2.445  0.00  0.00    -0.147 OA
BRANCH  10  13
ATOM     13  O   LIG    1       -1.281   6.069  -4.332  0.00  0.00    -0.254 OA
ATOM     14  H   LIG    1       -1.904   5.518  -4.830  0.00  0.00    +0.244 HD
ENDBRANCH  10  13
ENDBRANCH   9  10
ENDBRANCH   8   9
ENDBRANCH   3   8
ENDBRANCH   2   3
ENDBRANCH   1   2
BRANCH   1  15
ATOM     15  S   LIG    1        2.130   0.065   0.499  0.00  0.00    -0.095 S 
BRANCH  15  16
ATOM     16  C   LIG    1        2.039  -0.759  -1.121  0.00  0.00    +0.065 C 
BRANCH  16  17
ATOM     17  C   LIG    1        3.377  -1.017  -1.854  0.00  0.00    -0.063 C 
BRANCH  17  18
ATOM     18  N   LIG    1        4.266  -1.939  -1.001  0.00  0.00    +0.381 N 
ATOM     19  H   LIG    1        5.159  -2.076  -1.453  0.00  0.00    -0.090 HD
ATOM     20  H   LIG    1        4.421  -1.529  -0.091  0.00  0.00    -0.090 HD
ATOM     21  H   LIG    1        3.822  -2.838  -0.882  0.00  0.00    -0.090 HD
ENDBRANCH  17  18
BRANCH  17  22
ATOM     22  C   LIG    1        3.220  -1.651  -3.257  0.00  0.00    +0.010 C 
BRANCH  22  23
ATOM     23  C   LIG    1        2.529  -0.729  -4.281  0.00  0.00    +0.196 C 
BRANCH  23  24
ATOM     24  S   LIG    1        2.416  -1.579  -5.969  0.00  0.00    +0.080 S 
ATOM     25  O   LIG    1        1.631  -2.788  -5.696  0.00  0.00    -0.147 OA
ATOM     26  O   LIG    1        3.816  -1.825  -6.331  0.00  0.00    -0.147 OA
BRANCH  24  27
ATOM     27  O   LIG    1        1.734  -0.584  -6.803  0.00  0.00    -0.254 OA
ATOM     28  H   LIG    1        2.316   0.180  -6.936  0.00  0.00    +0.244 HD
ENDBRANCH  24  27
ENDBRANCH  23  24
ENDBRANCH  22  23
ENDBRANCH  17  22
ENDBRANCH  16  17
ENDBRANCH  15  16
ENDBRANCH   1  15
TORSDOF 15
