REMARK  Name = DB13083
REMARK                            x       y       z     vdW  Elec       q    Type
REMARK                         _______ _______ _______ _____ _____    ______ ____
ROOT
ATOM      1  C   LIG    1        2.124  -1.194   0.327  0.00  0.00    -0.023 A 
ATOM      2  C   LIG    1        3.236  -1.404  -0.493  0.00  0.00    +0.007 A 
ATOM      3  C   LIG    1        3.893  -2.631  -0.488  0.00  0.00    +0.023 A 
ATOM      4  C   LIG    1        3.449  -3.667   0.345  0.00  0.00    +0.033 A 
ATOM      5  C   LIG    1        2.336  -3.455   1.161  0.00  0.00    +0.023 A 
ATOM      6  C   LIG    1        1.679  -2.228   1.156  0.00  0.00    +0.007 A 
ENDROOT
BRANCH   4   7
ATOM      7  N   LIG    1        4.043  -4.943   0.406  0.00  0.00    -0.294 N 
ATOM      8  H   LIG    1        3.522  -5.559   1.012  0.00  0.00    +0.154 HD
BRANCH   7   9
ATOM      9  C   LIG    1        5.215  -5.423  -0.134  0.00  0.00    +0.163 A 
ATOM     10  S   LIG    1        5.558  -7.121   0.112  0.00  0.00    -0.052 S 
ATOM     11  C   LIG    1        7.060  -6.896  -0.772  0.00  0.00    +0.041 A 
ATOM     12  C   LIG    1        8.063  -7.821  -1.093  0.00  0.00    +0.017 A 
ATOM     13  C   LIG    1        9.167  -7.362  -1.812  0.00  0.00    +0.001 A 
ATOM     14  C   LIG    1        9.276  -6.027  -2.200  0.00  0.00    +0.002 A 
ATOM     15  C   LIG    1        8.284  -5.096  -1.886  0.00  0.00    +0.029 A 
ATOM     16  C   LIG    1        7.162  -5.535  -1.165  0.00  0.00    +0.080 A 
ATOM     17  N   LIG    1        6.120  -4.748  -0.789  0.00  0.00    -0.225 NA
ENDBRANCH   7   9
ENDBRANCH   4   7
BRANCH   1  18
ATOM     18  C   LIG    1        1.401   0.160   0.303  0.00  0.00    +0.142 C 
BRANCH  18  19
ATOM     19  N   LIG    1        1.616   0.901   1.555  0.00  0.00    -0.244 N 
ATOM     20  N   LIG    1        1.032   0.545   2.706  0.00  0.00    -0.158 NA
ATOM     21  C   LIG    1        1.520   1.442   3.535  0.00  0.00    +0.245 A 
ATOM     22  N   LIG    1        2.366   2.334   3.042  0.00  0.00    -0.223 NA
ATOM     23  C   LIG    1        2.427   1.980   1.785  0.00  0.00    +0.219 A 
ENDBRANCH  18  19
BRANCH  18  24
ATOM     24  C   LIG    1       -0.121   0.069  -0.074  0.00  0.00    +0.018 C 
BRANCH  24  26
ATOM     25  C   LIG    1        0.187  -0.216  -2.659  0.00  0.00    +0.004 C 
ATOM     26  C   LIG    1       -0.384  -0.786  -1.349  0.00  0.00    +0.002 C 
ENDBRANCH  24  26
BRANCH  24  27
ATOM     27  C   LIG    1       -0.794   1.472  -0.149  0.00  0.00    +0.002 C 
ATOM     28  C   LIG    1       -2.314   1.455  -0.377  0.00  0.00    +0.004 C 
ENDBRANCH  24  27
ENDBRANCH  18  24
ENDBRANCH   1  18
TORSDOF 7
