REMARK  Name = DB13129
REMARK                            x       y       z     vdW  Elec       q    Type
REMARK                         _______ _______ _______ _____ _____    ______ ____
ROOT
ATOM      1  C   LIG    1        2.116   1.262   0.681  0.00  0.00    +0.034 C 
ATOM      2  C   LIG    1        2.316   2.469  -0.290  0.00  0.00    +0.020 C 
ATOM      3  C   LIG    1        3.451   0.737   1.362  0.00  0.00    -0.016 C 
ATOM      4  C   LIG    1        3.243  -0.679   2.019  0.00  0.00    +0.012 C 
ATOM      5  C   LIG    1        4.739   0.707   0.484  0.00  0.00    +0.012 C 
ATOM      6  C   LIG    1        6.025   0.469   1.325  0.00  0.00    +0.032 C 
ATOM      7  C   LIG    1        6.134   1.576   2.389  0.00  0.00    -0.063 C 
ATOM      8  C   LIG    1        4.902   1.602   3.329  0.00  0.00    +0.019 C 
ATOM      9  C   LIG    1        5.084   2.589   4.509  0.00  0.00    +0.013 C 
ATOM     10  C   LIG    1        5.769   3.899   4.116  0.00  0.00    +0.036 C 
ATOM     11  C   LIG    1        7.097   3.590   3.434  0.00  0.00    -0.041 C 
ATOM     12  C   LIG    1        8.177   4.360   3.696  0.00  0.00    +0.050 C 
ATOM     13  C   LIG    1        9.461   4.208   3.034  0.00  0.00    +0.157 C 
ATOM     14  O   LIG    1       10.491   4.714   3.473  0.00  0.00    -0.293 OA
ATOM     15  C   LIG    1        9.381   3.552   1.652  0.00  0.00    +0.083 C 
ATOM     16  C   LIG    1        8.402   2.351   1.576  0.00  0.00    +0.043 C 
ATOM     17  C   LIG    1        7.156   2.474   2.474  0.00  0.00    -0.044 C 
ATOM     18  C   LIG    1        3.662   1.855   2.426  0.00  0.00    +0.003 C 
ATOM     19  C   LIG    1        2.277   2.045   3.055  0.00  0.00    +0.005 C 
ATOM     20  C   LIG    1        1.278   1.693   1.932  0.00  0.00    +0.015 C 
ENDROOT
BRANCH   1  21
ATOM     21  C   LIG    1        1.402   0.170  -0.188  0.00  0.00    +0.168 C 
ATOM     22  O   LIG    1        2.076  -0.573  -0.906  0.00  0.00    -0.294 OA
BRANCH  21  24
ATOM     23  C   LIG    1       -0.700  -1.042  -1.127  0.00  0.00    +0.046 C 
ATOM     24  C   LIG    1       -0.138   0.004  -0.142  0.00  0.00    +0.178 C 
BRANCH  24  25
ATOM     25  O   LIG    1       -0.748   1.251  -0.414  0.00  0.00    -0.385 OA
ATOM     26  H   LIG    1       -0.604   1.464  -1.339  0.00  0.00    +0.210 HD
ENDBRANCH  24  25
ENDBRANCH  21  24
ENDBRANCH   1  21
TORSDOF 3
