REMARK  Name = DB13052
REMARK                            x       y       z     vdW  Elec       q    Type
REMARK                         _______ _______ _______ _____ _____    ______ ____
ROOT
ATOM      1  C   LIG    1       -0.819   1.298  -0.259  0.00  0.00    +0.166 C 
ENDROOT
BRANCH   1   7
ATOM      2  C   LIG    1       -4.229   6.531   0.910  0.00  0.00    +0.403 C 
ATOM      3  N   LIG    1       -3.519   5.315   0.934  0.00  0.00    -0.264 N 
ATOM      4  C   LIG    1       -2.495   4.999  -0.086  0.00  0.00    +0.130 C 
ATOM      5  C   LIG    1       -1.401   4.107   0.549  0.00  0.00    +0.127 C 
ATOM      6  N   LIG    1       -2.045   2.950   1.198  0.00  0.00    -0.297 N 
ATOM      7  C   LIG    1       -1.859   1.648   0.842  0.00  0.00    +0.235 C 
ATOM      8  O   LIG    1       -2.508   0.739   1.371  0.00  0.00    -0.274 OA
ATOM      9  C   LIG    1       -2.979   3.325   2.275  0.00  0.00    +0.127 C 
ATOM     10  C   LIG    1       -4.113   4.188   1.676  0.00  0.00    +0.130 C 
ATOM     11  O   LIG    1       -5.271   6.758   1.532  0.00  0.00    -0.226 OA
BRANCH   2  12
ATOM     12  O   LIG    1       -3.618   7.462   0.130  0.00  0.00    -0.451 OA
BRANCH  12  14
ATOM     13  C   LIG    1       -3.270   9.581  -0.963  0.00  0.00    +0.048 C 
ATOM     14  C   LIG    1       -4.158   8.770  -0.015  0.00  0.00    +0.230 C 
ENDBRANCH  12  14
ENDBRANCH   2  12
ENDBRANCH   1   7
BRANCH   1  15
ATOM     15  N   LIG    1       -0.364  -0.100  -0.029  0.00  0.00    -0.178 NA
ATOM     16  H   LIG    1       -0.946  -0.622   0.633  0.00  0.00    +0.149 HD
BRANCH  15  17
ATOM     17  S   LIG    1        1.363  -0.450   0.084  0.00  0.00    +0.060 S 
ATOM     18  O   LIG    1        1.991  -0.088  -1.188  0.00  0.00    -0.153 OA
ATOM     19  O   LIG    1        1.500  -1.837   0.543  0.00  0.00    -0.153 OA
BRANCH  17  20
ATOM     20  C   LIG    1        1.958   0.646   1.434  0.00  0.00    +0.112 A 
ATOM     21  C   LIG    1        2.750   1.804   1.185  0.00  0.00    -0.018 A 
ATOM     22  C   LIG    1        3.370   2.453   2.262  0.00  0.00    +0.009 A 
ATOM     23  C   LIG    1        3.181   2.043   3.575  0.00  0.00    -0.044 A 
ATOM     24  C   LIG    1        2.334   0.970   3.821  0.00  0.00    +0.009 A 
ATOM     25  C   LIG    1        1.700   0.279   2.784  0.00  0.00    -0.018 A 
BRANCH  21  26
ATOM     26  C   LIG    1        2.964   2.439  -0.204  0.00  0.00    +0.015 C 
ATOM     27  C   LIG    1        2.815   3.978  -0.223  0.00  0.00    +0.012 C 
ATOM     28  C   LIG    1        4.294   1.994  -0.841  0.00  0.00    +0.012 C 
ENDBRANCH  21  26
BRANCH  23  29
ATOM     29  C   LIG    1        3.864   2.784   4.727  0.00  0.00    +0.013 C 
ATOM     30  C   LIG    1        2.842   3.485   5.642  0.00  0.00    +0.012 C 
ATOM     31  C   LIG    1        4.813   1.868   5.523  0.00  0.00    +0.012 C 
ENDBRANCH  23  29
BRANCH  25  32
ATOM     32  C   LIG    1        0.709  -0.824   3.209  0.00  0.00    +0.015 C 
ATOM     33  C   LIG    1        1.434  -2.061   3.773  0.00  0.00    +0.012 C 
ATOM     34  C   LIG    1       -0.375  -0.307   4.180  0.00  0.00    +0.012 C 
ENDBRANCH  25  32
ENDBRANCH  17  20
ENDBRANCH  15  17
ENDBRANCH   1  15
BRANCH   1  35
ATOM     35  C   LIG    1       -1.422   1.460  -1.676  0.00  0.00    +0.065 C 
BRANCH  35  36
ATOM     36  C   LIG    1       -0.396   1.300  -2.789  0.00  0.00    -0.045 A 
ATOM     37  C   LIG    1       -0.247   0.074  -3.445  0.00  0.00    +0.019 A 
ATOM     38  C   LIG    1        0.732  -0.113  -4.439  0.00  0.00    +0.070 A 
ATOM     39  C   LIG    1        1.536   0.991  -4.774  0.00  0.00    +0.016 A 
ATOM     40  C   LIG    1        1.385   2.220  -4.133  0.00  0.00    +0.001 A 
ATOM     41  C   LIG    1        0.423   2.374  -3.141  0.00  0.00    +0.004 A 
BRANCH  38  42
ATOM     42  C   LIG    1        0.894  -1.431  -5.125  0.00  0.00    +0.362 C 
ATOM     43  N   LIG    1        2.001  -2.009  -5.408  0.00  0.00    +0.151 NA
BRANCH  42  44
ATOM     44  N   LIG    1       -0.338  -1.960  -5.449  0.00  0.00    -0.243 N 
ATOM     45  H   LIG    1       -1.187  -1.467  -5.213  0.00  0.00    +0.289 HD
ATOM     46  H   LIG    1       -0.403  -2.846  -5.927  0.00  0.00    +0.289 HD
ENDBRANCH  42  44
BRANCH  43  47
ATOM     47  O   LIG    1        3.162  -1.415  -4.877  0.00  0.00    -0.311 OA
ATOM     48  H   LIG    1        3.852  -2.002  -5.196  0.00  0.00    +0.361 HD
ENDBRANCH  43  47
ENDBRANCH  38  42
ENDBRANCH  35  36
ENDBRANCH   1  35
TORSDOF 14
