REMARK  Name = DB13055
REMARK                            x       y       z     vdW  Elec       q    Type
REMARK                         _______ _______ _______ _____ _____    ______ ____
ROOT
ATOM      1  C   LIG    1        1.652  -0.002   0.115  0.00  0.00    +0.324 C 
ATOM      2  F   LIG    1        2.024   1.097  -0.550  0.00  0.00    -0.195 F 
ATOM      3  F   LIG    1        2.065  -1.036  -0.626  0.00  0.00    -0.195 F 
ENDROOT
BRANCH   1   7
ATOM      4  C   LIG    1       -2.677   0.030   0.068  0.00  0.00    +0.000 A 
ATOM      5  C   LIG    1       -1.886   1.178   0.220  0.00  0.00    +0.119 A 
ATOM      6  N   LIG    1       -0.530   1.162   0.237  0.00  0.00    -0.253 NA
ATOM      7  C   LIG    1        0.108  -0.031   0.093  0.00  0.00    +0.113 A 
ATOM      8  C   LIG    1       -0.602  -1.228  -0.068  0.00  0.00    +0.030 A 
ATOM      9  C   LIG    1       -1.997  -1.189  -0.078  0.00  0.00    +0.012 A 
BRANCH   4  11
ATOM     10  C   LIG    1       -4.830   1.210  -0.483  0.00  0.00    +0.012 A 
ATOM     11  C   LIG    1       -4.169   0.102   0.062  0.00  0.00    -0.016 A 
ATOM     12  C   LIG    1       -4.939  -0.935   0.603  0.00  0.00    +0.012 A 
ATOM     13  C   LIG    1       -6.329  -0.869   0.602  0.00  0.00    +0.046 A 
ATOM     14  C   LIG    1       -6.983   0.245   0.056  0.00  0.00    +0.121 A 
ATOM     15  C   LIG    1       -6.221   1.278  -0.486  0.00  0.00    +0.046 A 
BRANCH  14  16
ATOM     16  O   LIG    1       -8.355   0.401   0.011  0.00  0.00    -0.483 OA
BRANCH  16  17
ATOM     17  C   LIG    1       -9.194  -0.612   0.563  0.00  0.00    +0.342 C 
BRANCH  17  18
ATOM     18  C   LIG    1      -10.667  -0.207   0.402  0.00  0.00    +0.424 C 
ATOM     19  F   LIG    1      -10.930   0.935   1.037  0.00  0.00    -0.167 F 
ATOM     20  F   LIG    1      -11.472  -1.141   0.907  0.00  0.00    -0.167 F 
ATOM     21  F   LIG    1      -10.992  -0.048  -0.881  0.00  0.00    -0.167 F 
ENDBRANCH  17  18
ENDBRANCH  16  17
ENDBRANCH  14  16
ENDBRANCH   4  11
ENDBRANCH   1   7
BRANCH   1  22
ATOM     22  C   LIG    1        2.293  -0.077   1.562  0.00  0.00    +0.182 C 
BRANCH  22  23
ATOM     23  C   LIG    1        3.841  -0.252   1.567  0.00  0.00    +0.027 A 
ATOM     24  C   LIG    1        4.504  -0.659   2.744  0.00  0.00    +0.132 A 
ATOM     25  F   LIG    1        3.813  -0.916   3.878  0.00  0.00    -0.205 F 
ATOM     26  C   LIG    1        5.892  -0.799   2.775  0.00  0.00    +0.077 A 
ATOM     27  C   LIG    1        6.649  -0.531   1.639  0.00  0.00    +0.126 A 
ATOM     28  F   LIG    1        7.994  -0.666   1.672  0.00  0.00    -0.205 F 
ATOM     29  C   LIG    1        6.018  -0.120   0.469  0.00  0.00    +0.039 A 
ATOM     30  C   LIG    1        4.631   0.020   0.435  0.00  0.00    +0.012 A 
ENDBRANCH  22  23
BRANCH  22  31
ATOM     31  O   LIG    1        1.693  -1.217   2.168  0.00  0.00    -0.376 OA
ATOM     32  H   LIG    1        0.739  -1.112   2.142  0.00  0.00    +0.211 HD
ENDBRANCH  22  31
BRANCH  22  33
ATOM     33  C   LIG    1        1.878   1.124   2.480  0.00  0.00    +0.193 C 
BRANCH  33  34
ATOM     34  N   LIG    1        2.444   2.412   2.076  0.00  0.00    -0.229 N 
ATOM     35  N   LIG    1        3.708   2.741   2.368  0.00  0.00    -0.044 NA
ATOM     36  N   LIG    1        3.876   4.003   1.830  0.00  0.00    -0.023 NA
ATOM     37  N   LIG    1        2.698   4.428   1.220  0.00  0.00    -0.117 NA
ATOM     38  C   LIG    1        1.851   3.444   1.390  0.00  0.00    +0.244 A 
ENDBRANCH  33  34
ENDBRANCH  22  33
ENDBRANCH   1  22
TORSDOF 10
