REMARK  Name = DB13873
REMARK                            x       y       z     vdW  Elec       q    Type
REMARK                         _______ _______ _______ _____ _____    ______ ____
ROOT
ATOM      1  C   LIG    1        1.766  -1.394   0.121  0.00  0.00    +0.122 A 
ATOM      2  C   LIG    1        1.052  -2.574  -0.128  0.00  0.00    +0.046 A 
ATOM      3  C   LIG    1        1.720  -3.787  -0.274  0.00  0.00    +0.015 A 
ATOM      4  C   LIG    1        3.117  -3.848  -0.189  0.00  0.00    +0.022 A 
ATOM      5  C   LIG    1        3.825  -2.674   0.095  0.00  0.00    +0.015 A 
ATOM      6  C   LIG    1        3.154  -1.463   0.238  0.00  0.00    +0.046 A 
ENDROOT
BRANCH   4   7
ATOM      7  C   LIG    1        3.857  -5.153  -0.300  0.00  0.00    +0.193 C 
ATOM      8  O   LIG    1        4.940  -5.289   0.274  0.00  0.00    -0.287 OA
BRANCH   7   9
ATOM      9  C   LIG    1        3.293  -6.300  -1.089  0.00  0.00    +0.022 A 
ATOM     10  C   LIG    1        2.529  -6.082  -2.245  0.00  0.00    +0.013 A 
ATOM     11  C   LIG    1        2.053  -7.159  -2.989  0.00  0.00    +0.021 A 
ATOM     12  C   LIG    1        2.355  -8.460  -2.596  0.00  0.00    +0.041 A 
ATOM     13 CL   LIG    1        1.764  -9.793  -3.519  0.00  0.00    -0.084 Cl
ATOM     14  C   LIG    1        3.137  -8.692  -1.468  0.00  0.00    +0.021 A 
ATOM     15  C   LIG    1        3.613  -7.616  -0.723  0.00  0.00    +0.013 A 
ENDBRANCH   7   9
ENDBRANCH   4   7
BRANCH   1  16
ATOM     16  O   LIG    1        1.224  -0.130   0.286  0.00  0.00    -0.475 OA
BRANCH  16  18
ATOM     17  C   LIG    1       -1.034  -0.385   1.238  0.00  0.00    +0.067 C 
ATOM     18  C   LIG    1       -0.164   0.218   0.100  0.00  0.00    +0.200 C 
ATOM     19  C   LIG    1       -0.695  -0.146  -1.315  0.00  0.00    +0.067 C 
BRANCH  18  20
ATOM     20  C   LIG    1       -0.189   1.771   0.195  0.00  0.00    +0.348 C 
ATOM     21  O   LIG    1       -1.103   2.408   0.719  0.00  0.00    -0.247 OA
BRANCH  20  22
ATOM     22  O   LIG    1        0.895   2.359  -0.398  0.00  0.00    -0.478 OA
ATOM     23  H   LIG    1        0.864   3.317  -0.347  0.00  0.00    +0.295 HD
ENDBRANCH  20  22
ENDBRANCH  18  20
ENDBRANCH  16  18
ENDBRANCH   1  16
TORSDOF 6
