REMARK  Name = DB13306
REMARK                            x       y       z     vdW  Elec       q    Type
REMARK                         _______ _______ _______ _____ _____    ______ ____
ROOT
ATOM      1  C   LIG    1       -0.016   0.009   0.000  0.00  0.00    +0.065 C 
ATOM      2  C   LIG    1        1.501   0.030   0.000  0.00  0.00    +0.039 A 
ATOM      3  C   LIG    1        2.208   1.230   0.000  0.00  0.00    +0.024 A 
ATOM      4  C   LIG    1        3.598   1.188   0.000  0.00  0.00    +0.013 A 
ATOM      5  C   LIG    1        4.271  -0.066   0.000  0.00  0.00    +0.022 A 
ATOM      6  C   LIG    1        5.689  -0.190   0.000  0.00  0.00    +0.052 A 
ATOM      7 CL   LIG    1        6.725   1.196   0.000  0.00  0.00    -0.083 Cl
ATOM      8  C   LIG    1        6.272  -1.454   0.000  0.00  0.00    +0.044 A 
ATOM      9  C   LIG    1        5.497  -2.608   0.000  0.00  0.00    +0.086 A 
ATOM     10 CL   LIG    1        6.299  -4.142   0.000  0.00  0.00    -0.080 Cl
ATOM     11  C   LIG    1        4.101  -2.527   0.000  0.00  0.00    +0.161 A 
ATOM     12  C   LIG    1        3.466  -1.251   0.000  0.00  0.00    +0.115 A 
ATOM     13  N   LIG    1        2.101  -1.185   0.000  0.00  0.00    -0.248 NA
ENDROOT
BRANCH  11  14
ATOM     14  O   LIG    1        3.351  -3.681   0.000  0.00  0.00    -0.503 OA
ATOM     15  H   LIG    1        2.407  -3.507   0.000  0.00  0.00    +0.292 HD
ENDBRANCH  11  14
TORSDOF 1
