REMARK  Name = DB13062
REMARK                            x       y       z     vdW  Elec       q    Type
REMARK                         _______ _______ _______ _____ _____    ______ ____
ROOT
ATOM      1  C   LIG    1       -4.762  -0.928   1.660  0.00  0.00    +0.051 C 
ATOM      2  C   LIG    1       -4.077  -1.071   0.301  0.00  0.00    +0.033 A 
ATOM      3  C   LIG    1       -2.690  -0.881   0.184  0.00  0.00    +0.131 A 
ATOM      4  O   LIG    1       -2.026  -0.484   1.334  0.00  0.00    -0.491 OA
ATOM      5  C   LIG    1       -0.615  -0.705   1.363  0.00  0.00    +0.238 C 
ATOM      6  C   LIG    1        0.037  -0.126   0.086  0.00  0.00    +0.068 C 
ATOM      7  C   LIG    1       -0.517  -0.852  -1.171  0.00  0.00    +0.063 C 
ATOM      8  C   LIG    1       -2.039  -1.011  -1.062  0.00  0.00    +0.003 A 
ATOM      9  C   LIG    1       -2.812  -1.342  -2.179  0.00  0.00    +0.011 A 
ATOM     10  C   LIG    1       -4.186  -1.535  -2.074  0.00  0.00    +0.046 A 
ATOM     11  C   LIG    1       -4.821  -1.403  -0.841  0.00  0.00    +0.123 A 
ENDROOT
BRANCH   6  12
ATOM     12  C   LIG    1        1.569  -0.017   0.122  0.00  0.00    -0.040 A 
ATOM     13  C   LIG    1        2.197   0.971  -0.645  0.00  0.00    +0.007 A 
ATOM     14  C   LIG    1        3.585   1.077  -0.654  0.00  0.00    +0.045 A 
ATOM     15  C   LIG    1        4.350   0.191   0.102  0.00  0.00    +0.117 A 
ATOM     16  C   LIG    1        3.736  -0.798   0.867  0.00  0.00    +0.045 A 
ATOM     17  C   LIG    1        2.348  -0.903   0.877  0.00  0.00    +0.007 A 
BRANCH  15  18
ATOM     18  O   LIG    1        5.716   0.291   0.092  0.00  0.00    -0.507 OA
ATOM     19  H   LIG    1        6.035   1.004  -0.466  0.00  0.00    +0.292 HD
ENDBRANCH  15  18
ENDBRANCH   6  12
BRANCH   7  20
ATOM     20  C   LIG    1        0.195  -2.180  -1.487  0.00  0.00    -0.039 A 
ATOM     21  C   LIG    1        1.285  -2.181  -2.365  0.00  0.00    +0.008 A 
ATOM     22  C   LIG    1        1.949  -3.367  -2.663  0.00  0.00    +0.045 A 
ATOM     23  C   LIG    1        1.521  -4.561  -2.086  0.00  0.00    +0.117 A 
ATOM     24  C   LIG    1        0.433  -4.576  -1.216  0.00  0.00    +0.045 A 
ATOM     25  C   LIG    1       -0.230  -3.389  -0.918  0.00  0.00    +0.008 A 
BRANCH  23  26
ATOM     26  O   LIG    1        2.174  -5.729  -2.377  0.00  0.00    -0.507 OA
ATOM     27  H   LIG    1        2.908  -5.606  -2.983  0.00  0.00    +0.292 HD
ENDBRANCH  23  26
ENDBRANCH   7  20
BRANCH  11  28
ATOM     28  O   LIG    1       -6.178  -1.597  -0.783  0.00  0.00    -0.506 OA
ATOM     29  H   LIG    1       -6.561  -1.813  -1.636  0.00  0.00    +0.292 HD
ENDBRANCH  11  28
TORSDOF 5
