REMARK  Name = DB13222
REMARK                            x       y       z     vdW  Elec       q    Type
REMARK                         _______ _______ _______ _____ _____    ______ ____
ROOT
ATOM      1  C   LIG    1       -0.026  -0.069   0.000  0.00  0.00    +0.044 C 
ATOM      2  C   LIG    1        1.498   0.018   0.000  0.00  0.00    -0.040 A 
ATOM      3  C   LIG    1        2.200   1.268   0.000  0.00  0.00    +0.007 A 
ATOM      4  C   LIG    1        1.569   2.548   0.000  0.00  0.00    +0.012 A 
ATOM      5  C   LIG    1        2.339   3.707   0.000  0.00  0.00    +0.020 A 
ATOM      6  C   LIG    1        3.721   3.592   0.000  0.00  0.00    +0.111 A 
ATOM      7  N   LIG    1        4.369   2.404   0.000  0.00  0.00    -0.251 NA
ATOM      8  C   LIG    1        3.636   1.250   0.000  0.00  0.00    +0.114 A 
ATOM      9  C   LIG    1        4.326   0.003   0.000  0.00  0.00    +0.157 A 
ATOM     10  C   LIG    1        3.604  -1.191   0.000  0.00  0.00    +0.062 A 
ATOM     11 BR   LIG    1        4.498  -2.876   0.000  0.00  0.00    -0.046 Br
ATOM     12  C   LIG    1        2.216  -1.176   0.000  0.00  0.00    +0.023 A 
ENDROOT
BRANCH   9  13
ATOM     13  O   LIG    1        5.701  -0.039   0.000  0.00  0.00    -0.504 OA
ATOM     14  H   LIG    1        6.097   0.836   0.000  0.00  0.00    +0.292 HD
ENDBRANCH   9  13
TORSDOF 1
