REMARK  Name = DB13914
REMARK                            x       y       z     vdW  Elec       q    Type
REMARK                         _______ _______ _______ _____ _____    ______ ____
ROOT
ATOM      1  N   LIG    1        3.429   3.339  -0.424  0.00  0.00    -0.269 N 
ATOM      2  H   LIG    1        4.107   3.854   0.118  0.00  0.00    +0.156 HD
ATOM      3  C   LIG    1        3.140   3.817  -1.651  0.00  0.00    +0.306 C 
ATOM      4  O   LIG    1        2.469   3.233  -2.505  0.00  0.00    -0.252 OA
ATOM      5  N   LIG    1        3.698   5.027  -1.830  0.00  0.00    -0.271 N 
ATOM      6  H   LIG    1        4.244   5.410  -1.072  0.00  0.00    +0.153 HD
ENDROOT
BRANCH   1  11
ATOM      7  C   LIG    1        1.383   0.325   0.460  0.00  0.00    -0.036 A 
ATOM      8  C   LIG    1        2.227  -0.235   1.428  0.00  0.00    +0.004 A 
ATOM      9  C   LIG    1        3.428   0.387   1.768  0.00  0.00    +0.002 A 
ATOM     10  C   LIG    1        3.803   1.573   1.140  0.00  0.00    +0.023 A 
ATOM     11  C   LIG    1        2.985   2.142   0.162  0.00  0.00    +0.035 A 
ATOM     12  C   LIG    1        1.764   1.526  -0.155  0.00  0.00    +0.027 A 
BRANCH   7  14
ATOM     13  C   LIG    1       -1.171   0.659   0.338  0.00  0.00    +0.134 C 
ATOM     14  C   LIG    1        0.030  -0.340   0.135  0.00  0.00    +0.080 C 
ATOM     15  C   LIG    1       -0.013  -1.125  -1.201  0.00  0.00    -0.011 A 
ATOM     16  C   LIG    1        0.894  -0.874  -2.245  0.00  0.00    +0.029 A 
ATOM     17  C   LIG    1        0.787  -1.467  -3.514  0.00  0.00    +0.030 A 
ATOM     18  C   LIG    1       -0.282  -2.348  -3.722  0.00  0.00    +0.025 A 
ATOM     19  C   LIG    1       -1.184  -2.635  -2.705  0.00  0.00    +0.029 A 
ATOM     20  C   LIG    1       -1.048  -2.052  -1.443  0.00  0.00    +0.092 A 
ATOM     21  S   LIG    1       -2.187  -2.592  -0.155  0.00  0.00    -0.002 S 
ATOM     22  O   LIG    1       -3.131  -3.536  -0.764  0.00  0.00    -0.169 OA
ATOM     23  O   LIG    1       -1.389  -3.021   0.997  0.00  0.00    -0.169 OA
ATOM     24  C   LIG    1       -3.176  -1.020   0.265  0.00  0.00    +0.181 C 
ATOM     25  C   LIG    1       -2.468   0.128   1.067  0.00  0.00    +0.017 C 
BRANCH  17  26
ATOM     26  N   LIG    1        1.722  -1.178  -4.549  0.00  0.00    -0.336 N 
ATOM     27  C   LIG    1        1.508  -1.685  -5.904  0.00  0.00    +0.129 C 
ATOM     28  C   LIG    1        2.698  -0.099  -4.387  0.00  0.00    +0.129 C 
ENDBRANCH  17  26
BRANCH  13  29
ATOM     29  O   LIG    1       -1.480   1.281  -0.900  0.00  0.00    -0.390 OA
ATOM     30  H   LIG    1       -0.687   1.701  -1.239  0.00  0.00    +0.210 HD
ENDBRANCH  13  29
BRANCH  25  31
ATOM     31  C   LIG    1       -3.505   1.302   1.265  0.00  0.00    +0.008 C 
ATOM     32  C   LIG    1       -4.415   1.721   0.089  0.00  0.00    +0.004 C 
ENDBRANCH  25  31
BRANCH  25  33
ATOM     33  C   LIG    1       -2.123  -0.373   2.519  0.00  0.00    +0.011 C 
BRANCH  33  34
ATOM     34  C   LIG    1       -1.446   0.636   3.478  0.00  0.00    +0.000 C 
BRANCH  34  35
ATOM     35  C   LIG    1       -1.175   0.041   4.872  0.00  0.00    -0.003 C 
ATOM     36  C   LIG    1       -0.477   1.028   5.817  0.00  0.00    +0.004 C 
ENDBRANCH  34  35
ENDBRANCH  33  34
ENDBRANCH  25  33
ENDBRANCH   7  14
ENDBRANCH   1  11
BRANCH   5  37
ATOM     37  C   LIG    1        3.652   5.817  -3.033  0.00  0.00    +0.238 C 
ATOM     38  C   LIG    1        3.828   7.301  -2.655  0.00  0.00    +0.193 C 
ATOM     39  C   LIG    1        3.758   8.197  -3.915  0.00  0.00    +0.182 C 
ATOM     40  C   LIG    1        4.649   7.645  -5.061  0.00  0.00    +0.177 C 
ATOM     41  C   LIG    1        4.491   6.107  -5.226  0.00  0.00    +0.180 C 
ATOM     42  O   LIG    1        4.633   5.452  -3.963  0.00  0.00    -0.348 OA
BRANCH  38  43
ATOM     43  O   LIG    1        2.887   7.734  -1.684  0.00  0.00    -0.385 OA
ATOM     44  H   LIG    1        2.904   8.694  -1.654  0.00  0.00    +0.210 HD
ENDBRANCH  38  43
BRANCH  40  45
ATOM     45  O   LIG    1        4.362   8.299  -6.285  0.00  0.00    -0.386 OA
ATOM     46  H   LIG    1        3.469   8.071  -6.554  0.00  0.00    +0.210 HD
ENDBRANCH  40  45
BRANCH  39  47
ATOM     47  O   LIG    1        4.142   9.510  -3.493  0.00  0.00    -0.367 OA
BRANCH  47  48
ATOM     48  C   LIG    1        3.829  10.593  -4.364  0.00  0.00    +0.195 C 
BRANCH  48  49
ATOM     49  C   LIG    1        3.843  11.901  -3.586  0.00  0.00    -0.022 A 
ATOM     50  C   LIG    1        3.224  11.980  -2.335  0.00  0.00    +0.006 A 
ATOM     51  C   LIG    1        3.227  13.182  -1.631  0.00  0.00    +0.000 A 
ATOM     52  C   LIG    1        3.846  14.302  -2.181  0.00  0.00    +0.000 A 
ATOM     53  C   LIG    1        4.461  14.232  -3.429  0.00  0.00    +0.000 A 
ATOM     54  C   LIG    1        4.457  13.031  -4.134  0.00  0.00    +0.006 A 
ENDBRANCH  48  49
ENDBRANCH  47  48
ENDBRANCH  39  47
BRANCH  41  55
ATOM     55  C   LIG    1        5.531   5.471  -6.172  0.00  0.00    +0.230 C 
BRANCH  55  56
ATOM     56  O   LIG    1        5.357   5.932  -7.504  0.00  0.00    -0.213 OA
BRANCH  56  57
ATOM     57  S   LIG    1        6.709   6.037  -8.478  0.00  0.00    +0.208 S 
ATOM     58  O   LIG    1        7.260   4.676  -8.473  0.00  0.00    -0.118 OA
ATOM     59  O   LIG    1        7.555   7.034  -7.812  0.00  0.00    -0.118 OA
BRANCH  57  60
ATOM     60  O   LIG    1        6.170   6.468  -9.773  0.00  0.00    -0.231 OA
ATOM     61  H   LIG    1        5.827   7.372  -9.695  0.00  0.00    +0.247 HD
ENDBRANCH  57  60
ENDBRANCH  56  57
ENDBRANCH  55  56
ENDBRANCH  41  55
ENDBRANCH   5  37
TORSDOF 18
