REMARK  Name = DB13879
REMARK                            x       y       z     vdW  Elec       q    Type
REMARK                         _______ _______ _______ _____ _____    ______ ____
ROOT
ATOM      1  C   LIG    1       -1.457   3.063   0.661  0.00  0.00    +0.166 C 
ATOM      2  C   LIG    1       -0.705   4.293   0.118  0.00  0.00    +0.078 C 
ATOM      3  C   LIG    1       -1.214   5.517   0.894  0.00  0.00    +0.195 C 
ATOM      4  O   LIG    1       -1.994   6.405   0.083  0.00  0.00    -0.470 OA
ATOM      5  C   LIG    1       -1.404   7.136  -0.938  0.00  0.00    +0.244 A 
ATOM      6  N   LIG    1       -0.059   7.032  -1.135  0.00  0.00    -0.210 NA
ATOM      7  C   LIG    1        0.494   7.733  -2.162  0.00  0.00    +0.093 A 
ATOM      8  C   LIG    1        1.886   7.646  -2.405  0.00  0.00    +0.030 A 
ATOM      9  C   LIG    1        2.452   8.362  -3.458  0.00  0.00    +0.002 A 
ATOM     10  C   LIG    1        1.663   9.165  -4.278  0.00  0.00    +0.002 A 
ATOM     11  C   LIG    1        0.290   9.270  -4.064  0.00  0.00    +0.030 A 
ATOM     12  C   LIG    1       -0.315   8.555  -3.003  0.00  0.00    +0.090 A 
ATOM     13  N   LIG    1       -1.656   8.659  -2.791  0.00  0.00    -0.239 NA
ATOM     14  C   LIG    1       -2.195   7.957  -1.755  0.00  0.00    +0.175 A 
ATOM     15  C   LIG    1       -3.700   8.128  -1.520  0.00  0.00    +0.314 C 
ATOM     16  F   LIG    1       -3.898   8.390  -0.227  0.00  0.00    -0.194 F 
ATOM     17  F   LIG    1       -4.184   9.172  -2.203  0.00  0.00    -0.194 F 
ATOM     18  C   LIG    1       -4.482   6.871  -1.870  0.00  0.00    +0.052 C 
ATOM     19  C   LIG    1       -5.612   6.811  -2.598  0.00  0.00    +0.003 C 
ATOM     20  C   LIG    1       -6.413   5.545  -2.800  0.00  0.00    +0.187 C 
ATOM     21  O   LIG    1       -7.517   5.575  -1.909  0.00  0.00    -0.369 OA
ATOM     22  C   LIG    1       -8.136   4.322  -1.641  0.00  0.00    +0.159 C 
ATOM     23  C   LIG    1       -8.747   4.425  -0.227  0.00  0.00    +0.207 C 
ATOM     24  O   LIG    1       -7.946   3.792   0.774  0.00  0.00    -0.444 OA
ATOM     25  C   LIG    1       -6.750   4.299   1.162  0.00  0.00    +0.401 C 
ATOM     26  O   LIG    1       -6.266   5.359   0.757  0.00  0.00    -0.226 OA
ATOM     27  N   LIG    1       -6.164   3.420   2.064  0.00  0.00    -0.269 N 
ATOM     28  H   LIG    1       -6.637   2.557   2.292  0.00  0.00    +0.153 HD
ATOM     29  C   LIG    1       -4.807   3.644   2.609  0.00  0.00    +0.168 C 
ATOM     30  C   LIG    1       -3.735   3.035   1.650  0.00  0.00    +0.237 C 
ATOM     31  O   LIG    1       -4.005   1.962   1.101  0.00  0.00    -0.274 OA
ATOM     32  C   LIG    1      -10.103   3.722  -0.332  0.00  0.00    +0.047 C 
ATOM     33  C   LIG    1      -10.576   4.056  -1.747  0.00  0.00    +0.006 C 
ATOM     34  C   LIG    1       -9.307   4.062  -2.608  0.00  0.00    +0.035 C 
ATOM     35  C   LIG    1       -2.142   4.966   1.978  0.00  0.00    +0.153 C 
ATOM     36  N   LIG    1       -2.516   3.624   1.521  0.00  0.00    -0.285 N 
ENDROOT
BRANCH   1  39
ATOM     37  N   LIG    1       -0.361   0.889   0.962  0.00  0.00    -0.299 N 
ATOM     38  H   LIG    1       -0.708   0.707   0.031  0.00  0.00    +0.150 HD
ATOM     39  C   LIG    1       -0.558   2.114   1.482  0.00  0.00    +0.234 C 
ATOM     40  O   LIG    1       -0.005   2.507   2.512  0.00  0.00    -0.274 OA
BRANCH  37  41
ATOM     41  C   LIG    1        0.486  -0.154   1.547  0.00  0.00    +0.121 C 
ATOM     42  C   LIG    1        0.201  -0.593   2.983  0.00  0.00    +0.090 C 
ATOM     43  C   LIG    1       -0.151  -1.512   1.839  0.00  0.00    +0.047 C 
BRANCH  41  46
ATOM     44  N   LIG    1        2.698   0.932   1.323  0.00  0.00    -0.188 N 
ATOM     45  H   LIG    1        2.257   1.706   1.826  0.00  0.00    +0.176 HD
ATOM     46  C   LIG    1        1.930  -0.211   1.010  0.00  0.00    +0.256 C 
ATOM     47  O   LIG    1        2.365  -1.179   0.386  0.00  0.00    -0.272 OA
BRANCH  44  48
ATOM     48  S   LIG    1        4.376   1.201   0.861  0.00  0.00    +0.051 S 
ATOM     49  O   LIG    1        4.547   0.746  -0.524  0.00  0.00    -0.155 OA
ATOM     50  O   LIG    1        4.699   2.585   1.222  0.00  0.00    -0.155 OA
BRANCH  48  52
ATOM     51  C   LIG    1        5.535  -1.363   1.527  0.00  0.00    +0.033 C 
ATOM     52  C   LIG    1        5.347   0.051   2.027  0.00  0.00    +0.104 C 
ATOM     53  C   LIG    1        5.174   0.328   3.527  0.00  0.00    +0.037 C 
ATOM     54  C   LIG    1        6.693  -0.383   1.496  0.00  0.00    +0.033 C 
ENDBRANCH  48  52
ENDBRANCH  44  48
ENDBRANCH  41  46
BRANCH  42  55
ATOM     55  C   LIG    1        1.272  -1.067   3.992  0.00  0.00    +0.347 C 
ATOM     56  F   LIG    1        0.726  -1.747   4.999  0.00  0.00    -0.209 F 
ATOM     57  F   LIG    1        2.259  -1.806   3.484  0.00  0.00    -0.209 F 
ENDBRANCH  42  55
ENDBRANCH  37  41
ENDBRANCH   1  39
BRANCH  29  58
ATOM     58  C   LIG    1       -4.701   3.175   4.113  0.00  0.00    -0.011 C 
ATOM     59  C   LIG    1       -5.776   3.895   4.970  0.00  0.00    +0.013 C 
ATOM     60  C   LIG    1       -4.944   1.647   4.247  0.00  0.00    +0.013 C 
ATOM     61  C   LIG    1       -3.321   3.501   4.739  0.00  0.00    +0.013 C 
ENDBRANCH  29  58
TORSDOF 7
