REMARK  Name = DB13962
REMARK                            x       y       z     vdW  Elec       q    Type
REMARK                         _______ _______ _______ _____ _____    ______ ____
ROOT
ATOM      1  C   LIG    1       -0.117   0.028   0.147  0.00  0.00    +0.185 C 
ENDROOT
BRANCH   1   2
ATOM      2  O   LIG    1       -0.701   1.323   0.099  0.00  0.00    -0.386 OA
ATOM      3  H   LIG    1       -0.275   1.817  -0.606  0.00  0.00    +0.210 HD
ENDBRANCH   1   2
BRANCH   1   4
ATOM      4  C   LIG    1       -0.655  -0.783   1.377  0.00  0.00    +0.254 C 
BRANCH   4   5
ATOM      5  O   LIG    1        0.014  -2.039   1.461  0.00  0.00    -0.378 OA
ATOM      6  H   LIG    1       -0.635  -2.730   1.303  0.00  0.00    +0.211 HD
ENDBRANCH   4   5
BRANCH   4   7
ATOM      7  C   LIG    1       -2.202  -0.996   1.307  0.00  0.00    +0.336 C 
ATOM      8  O   LIG    1       -2.925  -0.078   1.759  0.00  0.00    -0.248 OA
BRANCH   7   9
ATOM      9  O   LIG    1       -2.664  -2.059   0.824  0.00  0.00    -0.479 OA
ATOM     10  H   LIG    1       -2.082  -2.717   0.498  0.00  0.00    +0.295 HD
ENDBRANCH   7   9
ENDBRANCH   4   7
ENDBRANCH   1   4
BRANCH   1  11
ATOM     11  C   LIG    1        1.442   0.137   0.055  0.00  0.00    +0.185 C 
BRANCH  11  12
ATOM     12  O   LIG    1        1.973   0.782   1.206  0.00  0.00    -0.386 OA
ATOM     13  H   LIG    1        2.930   0.790   1.133  0.00  0.00    +0.210 HD
ENDBRANCH  11  12
BRANCH  11  14
ATOM     14  C   LIG    1        2.000   0.758  -1.274  0.00  0.00    +0.254 C 
BRANCH  14  15
ATOM     15  O   LIG    1        1.573   2.107  -1.451  0.00  0.00    -0.378 OA
ATOM     16  H   LIG    1        2.353   2.668  -1.446  0.00  0.00    +0.211 HD
ENDBRANCH  14  15
BRANCH  14  17
ATOM     17  C   LIG    1        3.555   0.629  -1.382  0.00  0.00    +0.336 C 
ATOM     18  O   LIG    1        4.023  -0.531  -1.451  0.00  0.00    -0.248 OA
BRANCH  17  19
ATOM     19  O   LIG    1        4.274   1.659  -1.410  0.00  0.00    -0.479 OA
ATOM     20  H   LIG    1        3.879   2.507  -1.355  0.00  0.00    +0.295 HD
ENDBRANCH  17  19
ENDBRANCH  14  17
ENDBRANCH  11  14
ENDBRANCH   1  11
TORSDOF 11
