REMARK  Name = DB13221
REMARK                            x       y       z     vdW  Elec       q    Type
REMARK                         _______ _______ _______ _____ _____    ______ ____
ROOT
ATOM      1  C   LIG    1        2.278   0.812  -1.095  0.00  0.00    +0.224 C 
ATOM      2  N   LIG    1        3.157   0.101  -1.841  0.00  0.00    -0.240 N 
ATOM      3  H   LIG    1        3.320  -0.852  -1.553  0.00  0.00    +0.159 HD
ATOM      4  C   LIG    1        3.847   0.524  -2.923  0.00  0.00    +0.303 C 
ATOM      5  N   LIG    1        4.649  -0.431  -3.398  0.00  0.00    -0.313 N 
ATOM      6  H   LIG    1        4.695  -1.335  -2.953  0.00  0.00    +0.146 HD
ATOM      7  H   LIG    1        5.221  -0.248  -4.210  0.00  0.00    +0.146 HD
ATOM      8  O   LIG    1        3.784   1.638  -3.446  0.00  0.00    -0.253 OA
ATOM      9  O   LIG    1        1.969   1.991  -1.290  0.00  0.00    -0.275 OA
ENDROOT
BRANCH   1  10
ATOM     10  C   LIG    1        1.632   0.050   0.091  0.00  0.00    +0.082 C 
BRANCH  10  12
ATOM     11  C   LIG    1       -0.592  -0.847   1.089  0.00  0.00    +0.008 C 
ATOM     12  C   LIG    1        0.073  -0.057  -0.059  0.00  0.00    -0.005 C 
ATOM     13  C   LIG    1       -0.378  -0.661  -1.412  0.00  0.00    +0.008 C 
ENDBRANCH  10  12
BRANCH  10  14
ATOM     14  C   LIG    1        2.073   0.658   1.458  0.00  0.00    +0.039 C 
BRANCH  14  15
ATOM     15  C   LIG    1        3.575   0.802   1.673  0.00  0.00    -0.034 C 
ATOM     16  C   LIG    1        4.295   0.099   2.561  0.00  0.00    +0.004 C 
ENDBRANCH  14  15
ENDBRANCH  10  14
ENDBRANCH   1  10
TORSDOF 4
