REMARK  Name = DB13075
REMARK                            x       y       z     vdW  Elec       q    Type
REMARK                         _______ _______ _______ _____ _____    ______ ____
ROOT
ATOM      1  C   LIG    1       -1.748   2.733   1.004  0.00  0.00    -0.076 C 
ATOM      2  C   LIG    1       -1.488   2.515  -0.306  0.00  0.00    -0.028 C 
ATOM      3  C   LIG    1       -1.869   4.124   1.614  0.00  0.00    +0.039 C 
ENDROOT
BRANCH   1   4
ATOM      4  C   LIG    1       -1.974   1.610   2.022  0.00  0.00    +0.034 C 
BRANCH   4   5
ATOM      5  C   LIG    1       -1.728   0.150   1.581  0.00  0.00    +0.031 C 
BRANCH   5   7
ATOM      6  C   LIG    1        0.600  -0.795   2.176  0.00  0.00    -0.076 C 
ATOM      7  C   LIG    1       -0.265  -0.191   1.331  0.00  0.00    -0.028 C 
ATOM      8  C   LIG    1        0.254  -1.231   3.597  0.00  0.00    +0.039 C 
BRANCH   6   9
ATOM      9  C   LIG    1        2.031  -1.104   1.747  0.00  0.00    +0.034 C 
BRANCH   9  10
ATOM     10  C   LIG    1        3.102  -0.222   2.413  0.00  0.00    +0.031 C 
BRANCH  10  12
ATOM     11  C   LIG    1        5.398  -1.361   2.648  0.00  0.00    -0.076 C 
ATOM     12  C   LIG    1        4.519  -0.575   1.988  0.00  0.00    -0.028 C 
ATOM     13  C   LIG    1        5.076  -2.091   3.947  0.00  0.00    +0.039 C 
BRANCH  11  14
ATOM     14  C   LIG    1        6.800  -1.609   2.104  0.00  0.00    +0.034 C 
BRANCH  14  15
ATOM     15  C   LIG    1        7.930  -1.051   2.988  0.00  0.00    +0.031 C 
BRANCH  15  17
ATOM     16  C   LIG    1       10.139  -0.470   1.785  0.00  0.00    -0.076 C 
ATOM     17  C   LIG    1        9.319  -1.329   2.435  0.00  0.00    -0.028 C 
ATOM     18  C   LIG    1        9.760   0.968   1.450  0.00  0.00    +0.039 C 
BRANCH  16  19
ATOM     19  C   LIG    1       11.539  -0.851   1.294  0.00  0.00    +0.034 C 
BRANCH  19  20
ATOM     20  C   LIG    1       12.032  -2.286   1.574  0.00  0.00    +0.031 C 
BRANCH  20  23
ATOM     21  C   LIG    1       15.294  -3.442  -0.350  0.00  0.00    +0.038 C 
ATOM     22  C   LIG    1       13.826  -3.262  -0.004  0.00  0.00    -0.080 C 
ATOM     23  C   LIG    1       13.445  -2.543   1.075  0.00  0.00    -0.028 C 
ATOM     24  C   LIG    1       12.872  -3.940  -0.978  0.00  0.00    +0.038 C 
ENDBRANCH  20  23
ENDBRANCH  19  20
ENDBRANCH  16  19
ENDBRANCH  15  17
ENDBRANCH  14  15
ENDBRANCH  11  14
ENDBRANCH  10  12
ENDBRANCH   9  10
ENDBRANCH   6   9
ENDBRANCH   5   7
ENDBRANCH   4   5
ENDBRANCH   1   4
BRANCH   2  25
ATOM     25  C   LIG    1       -1.232   3.555  -1.385  0.00  0.00    +0.031 C 
BRANCH  25  26
ATOM     26  C   LIG    1       -2.479   3.983  -2.184  0.00  0.00    +0.034 C 
BRANCH  26  27
ATOM     27  C   LIG    1       -3.159   2.874  -2.985  0.00  0.00    -0.076 C 
ATOM     28  C   LIG    1       -2.911   2.720  -4.304  0.00  0.00    -0.028 C 
ATOM     29  C   LIG    1       -4.156   2.023  -2.204  0.00  0.00    +0.039 C 
BRANCH  28  30
ATOM     30  C   LIG    1       -3.490   1.669  -5.239  0.00  0.00    +0.031 C 
BRANCH  30  31
ATOM     31  C   LIG    1       -4.558   2.231  -6.200  0.00  0.00    +0.034 C 
BRANCH  31  32
ATOM     32  C   LIG    1       -5.195   1.265  -7.203  0.00  0.00    -0.076 C 
ATOM     33  C   LIG    1       -4.888  -0.054  -7.258  0.00  0.00    -0.023 C 
ATOM     34  C   LIG    1       -6.206   1.951  -8.115  0.00  0.00    +0.039 C 
BRANCH  33  35
ATOM     35  C   LIG    1       -5.428  -1.121  -8.203  0.00  0.00    +0.066 C 
BRANCH  35  36
ATOM     36  C   LIG    1       -4.338  -1.821  -9.034  0.00  0.00    +0.010 C 
ATOM     37  C   LIG    1       -3.642  -2.908  -8.294  0.00  0.00    +0.191 C 
ATOM     38  O   LIG    1       -3.868  -3.217  -7.120  0.00  0.00    -0.287 OA
ATOM     39  C   LIG    1       -2.596  -3.627  -9.101  0.00  0.00    +0.033 A 
ATOM     40  C   LIG    1       -2.315  -3.288 -10.444  0.00  0.00    +0.033 A 
ATOM     41  C   LIG    1       -3.043  -2.186 -11.163  0.00  0.00    +0.190 C 
ATOM     42  O   LIG    1       -2.790  -1.911 -12.339  0.00  0.00    -0.287 OA
ATOM     43  C   LIG    1       -1.322  -4.006 -11.133  0.00  0.00    +0.012 A 
ATOM     44  C   LIG    1       -0.618  -5.037 -10.518  0.00  0.00    +0.001 A 
ATOM     45  C   LIG    1       -0.894  -5.370  -9.198  0.00  0.00    +0.001 A 
ATOM     46  C   LIG    1       -1.873  -4.671  -8.498  0.00  0.00    +0.012 A 
ATOM     47  C   LIG    1       -4.067  -1.500 -10.334  0.00  0.00    +0.004 C 
ATOM     48  C   LIG    1       -4.742  -0.337 -11.075  0.00  0.00    +0.048 C 
ENDBRANCH  35  36
ENDBRANCH  33  35
ENDBRANCH  31  32
ENDBRANCH  30  31
ENDBRANCH  28  30
ENDBRANCH  26  27
ENDBRANCH  25  26
ENDBRANCH   2  25
TORSDOF 20
