REMARK  Name = DB13049
REMARK                            x       y       z     vdW  Elec       q    Type
REMARK                         _______ _______ _______ _____ _____    ______ ____
ROOT
ATOM      1  C   LIG    1       -0.671  -0.919   1.082  0.00  0.00    +0.002 C 
ATOM      2  C   LIG    1       -1.736  -1.258   0.024  0.00  0.00    +0.002 C 
ATOM      3  C   LIG    1       -0.689  -0.888  -1.046  0.00  0.00    -0.027 C 
ATOM      4  C   LIG    1       -0.005  -0.021   0.021  0.00  0.00    -0.027 C 
ENDROOT
BRANCH   3   5
ATOM      5  C   LIG    1       -1.218  -0.168  -2.305  0.00  0.00    -0.083 C 
BRANCH   5   6
ATOM      6  N   LIG    1       -2.063  -1.118  -3.164  0.00  0.00    +0.378 N 
ATOM      7  H   LIG    1       -1.508  -1.908  -3.462  0.00  0.00    -0.090 HD
ATOM      8  H   LIG    1       -2.854  -1.458  -2.636  0.00  0.00    -0.090 HD
ATOM      9  H   LIG    1       -2.404  -0.636  -3.983  0.00  0.00    -0.090 HD
ENDBRANCH   5   6
ENDBRANCH   3   5
BRANCH   4  10
ATOM     10  C   LIG    1        1.539   0.011   0.017  0.00  0.00    -0.083 C 
BRANCH  10  11
ATOM     11  N   LIG    1        2.074   0.732   1.261  0.00  0.00    +0.378 N 
ATOM     12  H   LIG    1        1.739   1.685   1.286  0.00  0.00    -0.090 HD
ATOM     13  H   LIG    1        1.767   0.259   2.099  0.00  0.00    -0.090 HD
ATOM     14  H   LIG    1        3.084   0.745   1.248  0.00  0.00    -0.090 HD
ENDBRANCH  10  11
ENDBRANCH   4  10
TORSDOF 4
