REMARK  Name = DB13030
REMARK                            x       y       z     vdW  Elec       q    Type
REMARK                         _______ _______ _______ _____ _____    ______ ____
ROOT
ATOM      1  C   LIG    1       -1.901   1.024  -0.478  0.00  0.00    +0.260 C 
ATOM      2  O   LIG    1       -0.684   1.137   0.202  0.00  0.00    -0.345 OA
ATOM      3  C   LIG    1        0.116  -0.030   0.028  0.00  0.00    +0.178 C 
ATOM      4  C   LIG    1       -0.640  -0.881  -1.013  0.00  0.00    +0.184 C 
ATOM      5  C   LIG    1       -1.633   0.088  -1.652  0.00  0.00    +0.246 C 
ATOM      6  F   LIG    1       -1.046   0.739  -2.659  0.00  0.00    -0.238 F 
ENDROOT
BRANCH   1  14
ATOM      7  C   LIG    1       -2.110   4.579  -1.538  0.00  0.00    +0.088 A 
ATOM      8  C   LIG    1       -3.538   4.840  -1.494  0.00  0.00    +0.254 A 
ATOM      9  O   LIG    1       -4.049   5.925  -1.759  0.00  0.00    -0.268 OA
ATOM     10  N   LIG    1       -4.265   3.746  -1.118  0.00  0.00    -0.275 N 
ATOM     11  H   LIG    1       -5.264   3.885  -1.092  0.00  0.00    +0.173 HD
ATOM     12  C   LIG    1       -3.845   2.485  -0.769  0.00  0.00    +0.331 A 
ATOM     13  O   LIG    1       -4.672   1.617  -0.485  0.00  0.00    -0.246 OA
ATOM     14  N   LIG    1       -2.470   2.329  -0.790  0.00  0.00    -0.271 N 
ATOM     15  C   LIG    1       -1.651   3.362  -1.188  0.00  0.00    +0.098 A 
ENDBRANCH   1  14
BRANCH   4  16
ATOM     16  O   LIG    1       -1.295  -1.992  -0.426  0.00  0.00    -0.386 OA
ATOM     17  H   LIG    1       -1.849  -2.408  -1.091  0.00  0.00    +0.210 HD
ENDBRANCH   4  16
BRANCH   3  18
ATOM     18  C   LIG    1        1.554   0.396  -0.345  0.00  0.00    +0.190 C 
BRANCH  18  19
ATOM     19  O   LIG    1        1.632   1.045  -1.600  0.00  0.00    -0.392 OA
ATOM     20  H   LIG    1        2.547   1.285  -1.764  0.00  0.00    +0.210 HD
ENDBRANCH  18  19
ENDBRANCH   3  18
TORSDOF 4
