REMARK  Name = DB13970
REMARK                            x       y       z     vdW  Elec       q    Type
REMARK                         _______ _______ _______ _____ _____    ______ ____
ROOT
ATOM      1  N   LIG    1       -0.066  -0.123  -0.001  0.00  0.00    +0.376 N 
ATOM      2  C   LIG    1       -0.647  -0.771   1.283  0.00  0.00    -0.092 C 
ATOM      3  C   LIG    1       -0.664  -0.864  -1.225  0.00  0.00    -0.092 C 
ENDROOT
BRANCH   1   4
ATOM      4  C   LIG    1       -0.526   1.370   0.007  0.00  0.00    -0.076 C 
BRANCH   4   5
ATOM      5  C   LIG    1       -0.075   2.194  -1.222  0.00  0.00    -0.018 C 
BRANCH   5   6
ATOM      6  C   LIG    1       -0.640   3.625  -1.197  0.00  0.00    -0.002 C 
BRANCH   6   7
ATOM      7  C   LIG    1       -0.228   4.451  -2.431  0.00  0.00    -0.000 C 
BRANCH   7   8
ATOM      8  C   LIG    1       -0.734   5.908  -2.425  0.00  0.00    -0.000 C 
BRANCH   8   9
ATOM      9  C   LIG    1       -2.266   6.050  -2.517  0.00  0.00    -0.000 C 
BRANCH   9  10
ATOM     10  C   LIG    1       -2.728   7.513  -2.634  0.00  0.00    -0.003 C 
ATOM     11  C   LIG    1       -4.253   7.653  -2.723  0.00  0.00    +0.004 C 
ENDBRANCH   9  10
ENDBRANCH   8   9
ENDBRANCH   7   8
ENDBRANCH   6   7
ENDBRANCH   5   6
ENDBRANCH   4   5
ENDBRANCH   1   4
BRANCH   1  12
ATOM     12  C   LIG    1        1.493  -0.206  -0.000  0.00  0.00    -0.076 C 
BRANCH  12  13
ATOM     13  C   LIG    1        2.061  -1.640   0.120  0.00  0.00    -0.018 C 
BRANCH  13  14
ATOM     14  C   LIG    1        3.597  -1.659   0.059  0.00  0.00    -0.002 C 
BRANCH  14  15
ATOM     15  C   LIG    1        4.183  -3.081   0.127  0.00  0.00    -0.000 C 
BRANCH  15  16
ATOM     16  C   LIG    1        5.721  -3.099   0.067  0.00  0.00    -0.000 C 
BRANCH  16  17
ATOM     17  C   LIG    1        6.306  -4.523   0.081  0.00  0.00    -0.000 C 
BRANCH  17  18
ATOM     18  C   LIG    1        7.843  -4.538   0.018  0.00  0.00    -0.003 C 
ATOM     19  C   LIG    1        8.425  -5.958  -0.012  0.00  0.00    +0.004 C 
ENDBRANCH  17  18
ENDBRANCH  16  17
ENDBRANCH  15  16
ENDBRANCH  14  15
ENDBRANCH  13  14
ENDBRANCH  12  13
ENDBRANCH   1  12
TORSDOF 14
