REMARK  Name = DB13500
REMARK                            x       y       z     vdW  Elec       q    Type
REMARK                         _______ _______ _______ _____ _____    ______ ____
ROOT
ATOM      1  C   LIG    1        1.355  -0.315  -0.542  0.00  0.00    +0.252 C 
ATOM      2  N   LIG    1        2.072  -1.336  -0.018  0.00  0.00    -0.281 N 
ATOM      3  H   LIG    1        1.548  -2.011   0.519  0.00  0.00    +0.155 HD
ATOM      4  O   LIG    1        1.814   0.573  -1.262  0.00  0.00    -0.270 OA
ENDROOT
BRANCH   1   6
ATOM      5  C   LIG    1       -0.821   0.871   0.073  0.00  0.00    +0.133 A 
ATOM      6  C   LIG    1       -0.117  -0.327  -0.186  0.00  0.00    +0.079 A 
ATOM      7  C   LIG    1       -0.806  -1.552  -0.131  0.00  0.00    +0.017 A 
ATOM      8  C   LIG    1       -2.161  -1.600   0.184  0.00  0.00    +0.001 A 
ATOM      9  C   LIG    1       -2.852  -0.424   0.448  0.00  0.00    +0.004 A 
ATOM     10  C   LIG    1       -2.190   0.799   0.394  0.00  0.00    +0.046 A 
BRANCH   5  11
ATOM     11  O   LIG    1       -0.131   2.073   0.021  0.00  0.00    -0.491 OA
BRANCH  11  12
ATOM     12  C   LIG    1       -0.819   3.302   0.235  0.00  0.00    +0.229 C 
BRANCH  12  13
ATOM     13  C   LIG    1        0.156   4.467   0.008  0.00  0.00    +0.041 C 
BRANCH  13  14
ATOM     14  C   LIG    1       -0.498   5.841   0.243  0.00  0.00    +0.003 C 
BRANCH  14  15
ATOM     15  C   LIG    1        0.458   7.019  -0.015  0.00  0.00    +0.000 C 
BRANCH  15  16
ATOM     16  C   LIG    1       -0.199   8.387   0.244  0.00  0.00    -0.000 C 
BRANCH  16  17
ATOM     17  C   LIG    1        0.741   9.572  -0.039  0.00  0.00    -0.000 C 
BRANCH  17  19
ATOM     18  C   LIG    1        1.014  12.120  -0.061  0.00  0.00    +0.004 C 
ATOM     19  C   LIG    1        0.082  10.935   0.230  0.00  0.00    -0.003 C 
ENDBRANCH  17  19
ENDBRANCH  16  17
ENDBRANCH  15  16
ENDBRANCH  14  15
ENDBRANCH  13  14
ENDBRANCH  12  13
ENDBRANCH  11  12
ENDBRANCH   5  11
ENDBRANCH   1   6
BRANCH   2  20
ATOM     20  C   LIG    1        3.443  -1.632  -0.132  0.00  0.00    +0.034 A 
ATOM     21  C   LIG    1        4.407  -0.777  -0.687  0.00  0.00    +0.024 A 
ATOM     22  C   LIG    1        5.741  -1.171  -0.743  0.00  0.00    +0.017 A 
ATOM     23  C   LIG    1        6.140  -2.421  -0.245  0.00  0.00    +0.059 A 
ATOM     24  C   LIG    1        5.171  -3.267   0.311  0.00  0.00    +0.017 A 
ATOM     25  C   LIG    1        3.838  -2.873   0.370  0.00  0.00    +0.024 A 
BRANCH  23  26
ATOM     26  C   LIG    1        7.569  -2.876  -0.290  0.00  0.00    +0.339 C 
ATOM     27  O   LIG    1        7.938  -3.997   0.074  0.00  0.00    -0.245 OA
BRANCH  26  28
ATOM     28  O   LIG    1        8.419  -1.921  -0.744  0.00  0.00    -0.463 OA
BRANCH  28  29
ATOM     29  C   LIG    1        9.820  -2.158  -0.828  0.00  0.00    +0.214 C 
BRANCH  29  30
ATOM     30  C   LIG    1       10.554  -0.856  -1.234  0.00  0.00    -0.034 C 
BRANCH  30  31
ATOM     31  N   LIG    1       11.003   0.048  -0.037  0.00  0.00    +0.380 N 
ATOM     32  C   LIG    1        9.776   0.420   0.837  0.00  0.00    -0.092 C 
BRANCH  31  33
ATOM     33  C   LIG    1       11.674   1.349  -0.592  0.00  0.00    -0.079 C 
ATOM     34  C   LIG    1       10.796   2.186  -1.550  0.00  0.00    -0.016 C 
ENDBRANCH  31  33
BRANCH  31  35
ATOM     35  C   LIG    1       12.052  -0.735   0.823  0.00  0.00    -0.079 C 
ATOM     36  C   LIG    1       12.690   0.078   1.972  0.00  0.00    -0.016 C 
ENDBRANCH  31  35
ENDBRANCH  30  31
ENDBRANCH  29  30
ENDBRANCH  28  29
ENDBRANCH  26  28
ENDBRANCH  23  26
ENDBRANCH   2  20
TORSDOF 17
