REMARK  Name = DB13046
REMARK                            x       y       z     vdW  Elec       q    Type
REMARK                         _______ _______ _______ _____ _____    ______ ____
ROOT
ATOM      1  C   LIG    1        1.496  -0.099  -0.073  0.00  0.00    +0.255 C 
ATOM      2  O   LIG    1        2.057   0.933   0.702  0.00  0.00    -0.346 OA
ATOM      3  C   LIG    1        3.153   1.503   0.007  0.00  0.00    +0.179 C 
ATOM      4  C   LIG    1        3.484   2.953   0.420  0.00  0.00    +0.206 C 
ATOM      5  O   LIG    1        4.534   3.457  -0.401  0.00  0.00    -0.284 OA
ATOM      6  P   LIG    1        4.353   3.268  -2.110  0.00  0.00    +0.475 P 
ATOM      7  O   LIG    1        3.644   1.718  -2.368  0.00  0.00    -0.278 OA
ATOM      8  O   LIG    1        5.691   3.366  -2.806  0.00  0.00    -0.227 OA
ATOM      9  C   LIG    1        2.636   1.403  -1.423  0.00  0.00    +0.194 C 
ATOM     10  C   LIG    1        2.073  -0.004  -1.502  0.00  0.00    +0.196 C 
ENDROOT
BRANCH   1  14
ATOM     11  C   LIG    1       -1.587   3.084  -0.311  0.00  0.00    +0.225 A 
ATOM     12  N   LIG    1       -0.502   2.296  -0.267  0.00  0.00    -0.216 NA
ATOM     13  C   LIG    1       -0.836   0.994  -0.080  0.00  0.00    +0.169 A 
ATOM     14  N   LIG    1       -0.020  -0.101   0.023  0.00  0.00    -0.270 N 
ATOM     15  C   LIG    1       -0.854  -1.148   0.199  0.00  0.00    +0.208 A 
ATOM     16 CL   LIG    1       -0.352  -2.786   0.366  0.00  0.00    -0.043 Cl
ATOM     17  N   LIG    1       -2.122  -0.826   0.226  0.00  0.00    -0.212 NA
ATOM     18  C   LIG    1       -2.125   0.505   0.054  0.00  0.00    +0.149 A 
ATOM     19  C   LIG    1       -3.187   1.438  -0.010  0.00  0.00    +0.147 A 
ATOM     20  N   LIG    1       -2.881   2.751  -0.198  0.00  0.00    -0.219 NA
BRANCH  19  21
ATOM     21  N   LIG    1       -4.527   1.075   0.109  0.00  0.00    -0.341 N 
ATOM     22  H   LIG    1       -5.239   1.788   0.056  0.00  0.00    +0.144 HD
ATOM     23  H   LIG    1       -4.766   0.103   0.248  0.00  0.00    +0.144 HD
ENDBRANCH  19  21
ENDBRANCH   1  14
BRANCH   6  24
ATOM     24  O   LIG    1        3.422   4.339  -2.636  0.00  0.00    -0.302 OA
ATOM     25  H   LIG    1        3.820   5.212  -2.492  0.00  0.00    +0.222 HD
ENDBRANCH   6  24
BRANCH  10  26
ATOM     26  O   LIG    1        3.053  -1.010  -1.701  0.00  0.00    -0.385 OA
ATOM     27  H   LIG    1        3.387  -0.932  -2.599  0.00  0.00    +0.210 HD
ENDBRANCH  10  26
TORSDOF 4
