REMARK  Name = DB13113
REMARK                            x       y       z     vdW  Elec       q    Type
REMARK                         _______ _______ _______ _____ _____    ______ ____
ROOT
ATOM      1  C   LIG    1        1.646  -0.049   0.023  0.00  0.00    +0.095 A 
ATOM      2  N   LIG    1        2.296  -1.236   0.153  0.00  0.00    -0.163 NA
ATOM      3  N   LIG    1        3.615  -1.203  -0.112  0.00  0.00    -0.191 N 
ATOM      4  C   LIG    1        4.542  -2.231  -0.047  0.00  0.00    +0.228 A 
ATOM      5  N   LIG    1        5.722  -1.783  -0.437  0.00  0.00    -0.126 NA
ATOM      6  N   LIG    1        5.636  -0.429  -0.720  0.00  0.00    -0.128 NA
ATOM      7  C   LIG    1        4.345  -0.080  -0.526  0.00  0.00    +0.178 A 
ATOM      8  C   LIG    1        3.647   1.131  -0.662  0.00  0.00    +0.052 A 
ATOM      9  C   LIG    1        2.279   1.134  -0.378  0.00  0.00    +0.034 A 
ENDROOT
BRANCH   1  14
ATOM     10  C   LIG    1       -3.216   1.085   0.836  0.00  0.00    +0.172 C 
ATOM     11  N   LIG    1       -1.935   0.412   0.710  0.00  0.00    -0.274 N 
ATOM     12  N   LIG    1       -1.850  -0.893   0.986  0.00  0.00    -0.179 NA
ATOM     13  C   LIG    1       -0.588  -1.188   0.775  0.00  0.00    +0.144 A 
ATOM     14  C   LIG    1        0.189  -0.091   0.351  0.00  0.00    +0.039 A 
ATOM     15  C   LIG    1       -0.735   0.946   0.318  0.00  0.00    +0.118 A 
ENDBRANCH   1  14
BRANCH   4  16
ATOM     16  C   LIG    1        4.247  -3.689   0.315  0.00  0.00    +0.334 C 
ATOM     17  F   LIG    1        5.325  -4.263   0.856  0.00  0.00    -0.191 F 
ATOM     18  F   LIG    1        3.977  -4.378  -0.796  0.00  0.00    -0.191 F 
BRANCH  16  19
ATOM     19  C   LIG    1        3.119  -3.861   1.343  0.00  0.00    +0.029 A 
ATOM     20  C   LIG    1        1.940  -4.542   1.016  0.00  0.00    +0.020 A 
ATOM     21  C   LIG    1        0.881  -4.640   1.950  0.00  0.00    +0.001 A 
ATOM     22  C   LIG    1       -0.343  -5.290   1.653  0.00  0.00    +0.011 A 
ATOM     23  C   LIG    1       -1.347  -5.331   2.618  0.00  0.00    +0.020 A 
ATOM     24  C   LIG    1       -1.115  -4.734   3.854  0.00  0.00    +0.111 A 
ATOM     25  N   LIG    1        0.042  -4.106   4.178  0.00  0.00    -0.255 NA
ATOM     26  C   LIG    1        1.032  -4.053   3.243  0.00  0.00    +0.071 A 
ATOM     27  C   LIG    1        2.240  -3.391   3.562  0.00  0.00    +0.029 A 
ATOM     28  C   LIG    1        3.259  -3.303   2.617  0.00  0.00    +0.012 A 
ENDBRANCH  16  19
ENDBRANCH   4  16
TORSDOF 3
