REMARK  Name = DB13228
REMARK                            x       y       z     vdW  Elec       q    Type
REMARK                         _______ _______ _______ _____ _____    ______ ____
ROOT
ATOM      1  C   LIG    1       -2.746   2.689   0.157  0.00  0.00    +0.149 C 
ATOM      2  N   LIG    1       -2.104   1.376   0.092  0.00  0.00    -0.348 N 
ATOM      3  C   LIG    1       -2.856   0.172   0.037  0.00  0.00    +0.055 A 
ATOM      4  C   LIG    1       -2.162  -1.064  -0.046  0.00  0.00    +0.047 A 
ATOM      5  C   LIG    1       -0.652  -1.141  -0.071  0.00  0.00    +0.205 A 
ATOM      6  O   LIG    1       -0.049  -2.214  -0.140  0.00  0.00    -0.286 OA
ATOM      7  C   LIG    1       -0.008   0.180   0.002  0.00  0.00    +0.102 A 
ATOM      8  C   LIG    1       -2.909  -2.252  -0.102  0.00  0.00    +0.016 A 
ATOM      9  C   LIG    1       -4.301  -2.228  -0.074  0.00  0.00    +0.039 A 
ATOM     10  C   LIG    1       -4.975  -1.015   0.012  0.00  0.00    +0.125 A 
ATOM     11  F   LIG    1       -6.327  -0.994   0.042  0.00  0.00    -0.205 F 
ATOM     12  C   LIG    1       -4.259   0.177   0.068  0.00  0.00    +0.064 A 
ATOM     13  C   LIG    1       -0.721   1.322   0.087  0.00  0.00    +0.106 A 
ENDROOT
BRANCH   7  14
ATOM     14  S   LIG    1        1.820   0.260   0.025  0.00  0.00    +0.056 S 
ATOM     15  O   LIG    1        2.234   1.725   0.179  0.00  0.00    -0.252 OA
ATOM     16  C   LIG    1        2.096  -0.192  -1.753  0.00  0.00    +0.127 C 
ENDBRANCH   7  14
TORSDOF 1
