REMARK  Name = DB13882
REMARK                            x       y       z     vdW  Elec       q    Type
REMARK                         _______ _______ _______ _____ _____    ______ ____
ROOT
ATOM      1  C   LIG    1        1.520   0.018   0.000  0.00  0.00    +0.077 A 
ATOM      2  C   LIG    1        2.260   1.211   0.000  0.00  0.00    +0.125 A 
ATOM      3  N   LIG    1        3.617   1.252   0.000  0.00  0.00    -0.262 NA
ATOM      4  C   LIG    1        4.286   0.073   0.000  0.00  0.00    +0.111 A 
ATOM      5  C   LIG    1        3.641  -1.163   0.000  0.00  0.00    +0.020 A 
ATOM      6  C   LIG    1        2.245  -1.187   0.000  0.00  0.00    +0.018 A 
ENDROOT
BRANCH   1   7
ATOM      7  C   LIG    1        0.022   0.063   0.000  0.00  0.00    +0.340 C 
ATOM      8  O   LIG    1       -0.623   1.115   0.000  0.00  0.00    -0.245 OA
BRANCH   7   9
ATOM      9  O   LIG    1       -0.549  -1.169   0.000  0.00  0.00    -0.464 OA
ATOM     10  C   LIG    1       -1.962  -1.319   0.000  0.00  0.00    +0.280 C 
ENDBRANCH   7   9
ENDBRANCH   1   7
TORSDOF 2
