REMARK  Name = DB13068
REMARK                            x       y       z     vdW  Elec       q    Type
REMARK                         _______ _______ _______ _____ _____    ______ ____
ROOT
ATOM      1  C   LIG    1       -0.962  -1.992   2.807  0.00  0.00    +0.159 C 
ATOM      2  N   LIG    1       -0.262  -0.995   1.986  0.00  0.00    -0.302 N 
ATOM      3  H   LIG    1        0.316  -0.347   2.502  0.00  0.00    +0.150 HD
ATOM      4  C   LIG    1       -0.247  -0.934   0.641  0.00  0.00    +0.237 C 
ATOM      5  O   LIG    1       -0.922  -1.660  -0.088  0.00  0.00    -0.274 OA
ATOM      6  C   LIG    1        0.741   0.068  -0.013  0.00  0.00    +0.190 C 
ATOM      7  N   LIG    1        0.036   1.219  -0.643  0.00  0.00    -0.289 N 
ATOM      8  C   LIG    1       -0.227   1.049  -2.077  0.00  0.00    +0.133 C 
ATOM      9  C   LIG    1       -0.413   2.299   0.057  0.00  0.00    +0.237 C 
ATOM     10  O   LIG    1       -0.476   2.316   1.288  0.00  0.00    -0.274 OA
ATOM     11  C   LIG    1       -0.742   3.615  -0.721  0.00  0.00    +0.164 C 
ATOM     12  N   LIG    1       -2.134   3.791  -1.230  0.00  0.00    -0.291 N 
ATOM     13  C   LIG    1       -2.148   4.254  -2.630  0.00  0.00    +0.133 C 
ATOM     14  C   LIG    1       -3.280   3.547  -0.520  0.00  0.00    +0.236 C 
ATOM     15  O   LIG    1       -3.262   3.110   0.629  0.00  0.00    -0.274 OA
ATOM     16  C   LIG    1       -4.657   3.957  -1.136  0.00  0.00    +0.162 C 
ATOM     17  N   LIG    1       -5.872   3.157  -0.791  0.00  0.00    -0.291 N 
ATOM     18  C   LIG    1       -6.056   2.730   0.610  0.00  0.00    +0.133 C 
ATOM     19  C   LIG    1       -6.882   2.882  -1.677  0.00  0.00    +0.236 C 
ATOM     20  O   LIG    1       -7.901   2.269  -1.355  0.00  0.00    -0.274 OA
ATOM     21  C   LIG    1       -6.822   3.392  -3.149  0.00  0.00    +0.162 C 
ATOM     22  N   LIG    1       -6.167   2.463  -4.118  0.00  0.00    -0.291 N 
ATOM     23  C   LIG    1       -4.849   2.941  -4.569  0.00  0.00    +0.133 C 
ATOM     24  C   LIG    1       -6.537   1.206  -4.518  0.00  0.00    +0.236 C 
ATOM     25  O   LIG    1       -5.779   0.463  -5.152  0.00  0.00    -0.274 OA
ATOM     26  C   LIG    1       -7.969   0.667  -4.300  0.00  0.00    +0.156 C 
ATOM     27  C   LIG    1       -8.869   1.030  -5.501  0.00  0.00    +0.038 C 
ATOM     28  N   LIG    1       -7.927  -0.789  -4.155  0.00  0.00    -0.303 N 
ATOM     29  H   LIG    1       -7.042  -1.215  -4.391  0.00  0.00    +0.149 HD
ATOM     30  C   LIG    1       -8.934  -1.575  -3.744  0.00  0.00    +0.234 C 
ATOM     31  O   LIG    1      -10.057  -1.168  -3.443  0.00  0.00    -0.274 OA
ATOM     32  C   LIG    1       -8.601  -3.076  -3.687  0.00  0.00    +0.156 C 
ATOM     33  C   LIG    1       -9.031  -3.791  -4.984  0.00  0.00    +0.038 C 
ATOM     34  N   LIG    1       -9.108  -3.755  -2.487  0.00  0.00    -0.303 N 
ATOM     35  H   LIG    1       -8.392  -3.990  -1.813  0.00  0.00    +0.149 HD
ATOM     36  C   LIG    1      -10.373  -4.098  -2.185  0.00  0.00    +0.234 C 
ATOM     37  O   LIG    1      -11.346  -3.888  -2.909  0.00  0.00    -0.274 OA
ATOM     38  C   LIG    1      -10.542  -4.869  -0.856  0.00  0.00    +0.162 C 
ATOM     39  N   LIG    1      -11.501  -4.249   0.101  0.00  0.00    -0.291 N 
ATOM     40  C   LIG    1      -12.865  -3.985  -0.403  0.00  0.00    +0.133 C 
ATOM     41  C   LIG    1      -11.229  -3.982   1.416  0.00  0.00    +0.237 C 
ATOM     42  O   LIG    1      -12.071  -3.484   2.169  0.00  0.00    -0.274 OA
ATOM     43  C   LIG    1       -9.822  -4.289   2.023  0.00  0.00    +0.162 C 
ATOM     44  N   LIG    1       -9.033  -3.059   1.955  0.00  0.00    -0.302 N 
ATOM     45  H   LIG    1       -9.340  -2.324   2.576  0.00  0.00    +0.150 HD
ATOM     46  C   LIG    1       -8.021  -2.797   1.112  0.00  0.00    +0.234 C 
ATOM     47  O   LIG    1       -7.548  -3.629   0.336  0.00  0.00    -0.274 OA
ATOM     48  C   LIG    1       -7.423  -1.363   1.205  0.00  0.00    +0.164 C 
ATOM     49  N   LIG    1       -6.263  -1.139   0.292  0.00  0.00    -0.291 N 
ATOM     50  C   LIG    1       -6.535  -1.071  -1.154  0.00  0.00    +0.133 C 
ATOM     51  C   LIG    1       -4.994  -0.931   0.740  0.00  0.00    +0.233 C 
ATOM     52  O   LIG    1       -4.060  -0.652  -0.018  0.00  0.00    -0.274 OA
ATOM     53  C   LIG    1       -4.711  -1.046   2.256  0.00  0.00    +0.203 C 
ATOM     54  N   LIG    1       -3.274  -0.933   2.565  0.00  0.00    -0.294 N 
ATOM     55  C   LIG    1       -2.757   0.428   2.725  0.00  0.00    +0.132 C 
ATOM     56  C   LIG    1       -2.508  -2.059   2.654  0.00  0.00    +0.236 C 
ATOM     57  O   LIG    1       -2.989  -3.194   2.586  0.00  0.00    -0.274 OA
ENDROOT
BRANCH  11  58
ATOM     58  C   LIG    1       -0.266   4.851   0.126  0.00  0.00    +0.012 C 
ATOM     59  C   LIG    1        1.223   4.790   0.544  0.00  0.00    +0.009 C 
ATOM     60  C   LIG    1       -0.508   6.198  -0.583  0.00  0.00    +0.009 C 
ENDBRANCH  11  58
BRANCH  43  61
ATOM     61  C   LIG    1       -9.951  -4.793   3.507  0.00  0.00    +0.012 C 
ATOM     62  C   LIG    1       -8.724  -5.635   3.904  0.00  0.00    +0.009 C 
ATOM     63  C   LIG    1      -10.170  -3.700   4.584  0.00  0.00    +0.009 C 
ENDBRANCH  43  61
BRANCH   1  65
ATOM     64  C   LIG    1        0.954  -1.968   4.561  0.00  0.00    +0.006 C 
ATOM     65  C   LIG    1       -0.563  -1.929   4.304  0.00  0.00    +0.028 C 
ENDBRANCH   1  65
BRANCH  48  66
ATOM     66  C   LIG    1       -8.540  -0.269   1.008  0.00  0.00    +0.015 C 
ATOM     67  C   LIG    1       -9.648  -0.591  -0.021  0.00  0.00    +0.010 C 
BRANCH  66  68
ATOM     68  C   LIG    1       -9.191   0.184   2.335  0.00  0.00    +0.002 C 
ATOM     69  C   LIG    1       -8.197   0.716   3.379  0.00  0.00    +0.004 C 
ENDBRANCH  66  68
ENDBRANCH  48  66
BRANCH   6  70
ATOM     70  C   LIG    1        2.006   0.449   0.848  0.00  0.00    +0.147 C 
BRANCH  70  71
ATOM     71  O   LIG    1        2.815   1.350   0.105  0.00  0.00    -0.389 OA
ATOM     72  H   LIG    1        2.912   1.007  -0.787  0.00  0.00    +0.210 HD
ENDBRANCH  70  71
BRANCH  70  73
ATOM     73  C   LIG    1        2.909  -0.739   1.321  0.00  0.00    +0.021 C 
ATOM     74  C   LIG    1        3.989  -0.261   2.319  0.00  0.00    +0.010 C 
BRANCH  73  75
ATOM     75  C   LIG    1        3.516  -1.572   0.159  0.00  0.00    +0.032 C 
BRANCH  75  76
ATOM     76  C   LIG    1        4.228  -2.842   0.595  0.00  0.00    -0.031 C 
ATOM     77  C   LIG    1        3.776  -4.088   0.371  0.00  0.00    -0.034 C 
ATOM     78  C   LIG    1        4.487  -5.353   0.801  0.00  0.00    +0.035 C 
ENDBRANCH  75  76
ENDBRANCH  73  75
ENDBRANCH  70  73
ENDBRANCH   6  70
BRANCH  16  79
ATOM     79  C   LIG    1       -4.919   5.484  -0.950  0.00  0.00    +0.035 C 
BRANCH  79  80
ATOM     80  C   LIG    1       -5.104   6.034   0.489  0.00  0.00    -0.015 C 
ATOM     81  C   LIG    1       -4.553   7.471   0.612  0.00  0.00    +0.007 C 
ATOM     82  C   LIG    1       -6.576   5.955   0.954  0.00  0.00    +0.007 C 
ENDBRANCH  79  80
ENDBRANCH  16  79
BRANCH  21  83
ATOM     83  C   LIG    1       -8.187   3.917  -3.683  0.00  0.00    +0.035 C 
BRANCH  83  84
ATOM     84  C   LIG    1       -8.763   5.160  -2.960  0.00  0.00    -0.015 C 
ATOM     85  C   LIG    1       -7.940   6.437  -3.239  0.00  0.00    +0.007 C 
ATOM     86  C   LIG    1      -10.261   5.352  -3.290  0.00  0.00    +0.007 C 
ENDBRANCH  83  84
ENDBRANCH  21  83
BRANCH  38  87
ATOM     87  C   LIG    1      -10.919  -6.362  -1.061  0.00  0.00    +0.035 C 
BRANCH  87  88
ATOM     88  C   LIG    1       -9.777  -7.284  -1.562  0.00  0.00    -0.015 C 
ATOM     89  C   LIG    1      -10.058  -8.763  -1.207  0.00  0.00    +0.007 C 
ATOM     90  C   LIG    1       -9.458  -7.113  -3.063  0.00  0.00    +0.007 C 
ENDBRANCH  87  88
ENDBRANCH  38  87
TORSDOF 16
