REMARK  Name = DB13077
REMARK                            x       y       z     vdW  Elec       q    Type
REMARK                         _______ _______ _______ _____ _____    ______ ____
ROOT
ATOM      1  C   LIG    1       -2.720  -0.056  -0.031  0.00  0.00    +0.070 A 
ATOM      2  C   LIG    1       -2.036   0.971  -0.700  0.00  0.00    +0.146 A 
ATOM      3  F   LIG    1       -2.702   1.983  -1.308  0.00  0.00    -0.203 F 
ATOM      4  C   LIG    1       -0.641   0.980  -0.730  0.00  0.00    +0.063 A 
ATOM      5  C   LIG    1        0.102  -0.024  -0.087  0.00  0.00    +0.042 A 
ATOM      6  C   LIG    1       -0.589  -1.027   0.605  0.00  0.00    +0.025 A 
ATOM      7  C   LIG    1       -1.982  -1.043   0.636  0.00  0.00    +0.028 A 
ENDROOT
BRANCH   1  13
ATOM      8  C   LIG    1       -8.333   0.292  -0.073  0.00  0.00    +0.149 C 
ATOM      9  N   LIG    1       -6.987  -0.270  -0.036  0.00  0.00    -0.278 N 
ATOM     10  N   LIG    1       -6.203   0.207  -1.109  0.00  0.00    -0.302 N 
ATOM     11  H   LIG    1       -6.744   0.308  -1.956  0.00  0.00    +0.185 HD
ATOM     12  C   LIG    1       -4.858   0.199  -1.076  0.00  0.00    +0.177 C 
ATOM     13  N   LIG    1       -4.149  -0.049   0.041  0.00  0.00    -0.288 N 
ATOM     14  C   LIG    1       -4.833  -0.363   1.311  0.00  0.00    +0.132 C 
ATOM     15  C   LIG    1       -6.306   0.123   1.212  0.00  0.00    +0.142 C 
ENDBRANCH   1  13
BRANCH   5  16
ATOM     16  N   LIG    1        1.517  -0.018  -0.086  0.00  0.00    -0.234 N 
ATOM     17  C   LIG    1        2.336   0.453  -1.125  0.00  0.00    +0.408 C 
ATOM     18  O   LIG    1        2.057   1.042  -2.168  0.00  0.00    -0.226 OA
ATOM     19  O   LIG    1        3.617   0.164  -0.796  0.00  0.00    -0.443 OA
ATOM     20  C   LIG    1        3.767  -0.346   0.510  0.00  0.00    +0.221 C 
ATOM     21  C   LIG    1        2.351  -0.761   0.845  0.00  0.00    +0.164 C 
BRANCH  20  22
ATOM     22  C   LIG    1        4.351   0.778   1.393  0.00  0.00    +0.202 C 
BRANCH  22  23
ATOM     23  O   LIG    1        4.534   0.319   2.717  0.00  0.00    -0.391 OA
ATOM     24  H   LIG    1        4.908   1.033   3.240  0.00  0.00    +0.210 HD
ENDBRANCH  22  23
ENDBRANCH  20  22
ENDBRANCH   5  16
TORSDOF 4
