REMARK  Name = DB13259
REMARK                            x       y       z     vdW  Elec       q    Type
REMARK                         _______ _______ _______ _____ _____    ______ ____
ROOT
ATOM      1  C   LIG    1       -0.016   0.000   0.000  0.00  0.00    +0.021 C 
ATOM      2  C   LIG    1        1.516  -0.006   0.000  0.00  0.00    +0.105 C 
ATOM      3 CL   LIG    1        2.131  -1.679   0.000  0.00  0.00    -0.126 Cl
ENDROOT
TORSDOF 0
