REMARK  Name = DB13783
REMARK                            x       y       z     vdW  Elec       q    Type
REMARK                         _______ _______ _______ _____ _____    ______ ____
ROOT
ATOM      1  C   LIG    1        1.259  -0.870  -2.409  0.00  0.00    +0.064 C 
ATOM      2  C   LIG    1        1.927  -0.550  -1.077  0.00  0.00    +0.028 A 
ATOM      3  N   LIG    1        3.311  -0.587  -0.873  0.00  0.00    -0.280 N 
ATOM      4  C   LIG    1        4.296  -0.869  -1.881  0.00  0.00    +0.263 C 
ATOM      5  O   LIG    1        5.285  -1.550  -1.604  0.00  0.00    -0.267 OA
ATOM      6  C   LIG    1        3.550  -0.384   0.485  0.00  0.00    +0.057 A 
ATOM      7  C   LIG    1        2.301  -0.128   1.113  0.00  0.00    +0.008 A 
ATOM      8  C   LIG    1        2.267   0.145   2.490  0.00  0.00    +0.056 A 
ATOM      9  C   LIG    1        3.458   0.154   3.228  0.00  0.00    +0.121 A 
ATOM     10  C   LIG    1        4.665  -0.102   2.584  0.00  0.00    +0.048 A 
ATOM     11  C   LIG    1        4.747  -0.371   1.219  0.00  0.00    +0.030 A 
ATOM     12  C   LIG    1        1.289  -0.215   0.110  0.00  0.00    -0.008 A 
ENDROOT
BRANCH   4  13
ATOM     13  C   LIG    1        4.168  -0.251  -3.253  0.00  0.00    +0.040 A 
ATOM     14  C   LIG    1        3.670   1.051  -3.406  0.00  0.00    +0.015 A 
ATOM     15  C   LIG    1        3.576   1.621  -4.673  0.00  0.00    +0.021 A 
ATOM     16  C   LIG    1        3.991   0.898  -5.789  0.00  0.00    +0.041 A 
ATOM     17 CL   LIG    1        3.875   1.605  -7.359  0.00  0.00    -0.084 Cl
ATOM     18  C   LIG    1        4.503  -0.390  -5.647  0.00  0.00    +0.021 A 
ATOM     19  C   LIG    1        4.596  -0.962  -4.380  0.00  0.00    +0.015 A 
ENDBRANCH   4  13
BRANCH   9  20
ATOM     20  O   LIG    1        3.528   0.407   4.585  0.00  0.00    -0.495 OA
ATOM     21  C   LIG    1        2.329   0.668   5.307  0.00  0.00    +0.277 C 
ENDBRANCH   9  20
BRANCH  12  22
ATOM     22  C   LIG    1       -0.199  -0.015   0.348  0.00  0.00    +0.158 C 
BRANCH  22  23
ATOM     23  C   LIG    1       -0.673   1.431   0.152  0.00  0.00    +0.312 C 
ATOM     24  O   LIG    1        0.031   2.295  -0.378  0.00  0.00    -0.250 OA
BRANCH  23  25
ATOM     25  O   LIG    1       -1.924   1.612   0.622  0.00  0.00    -0.453 OA
BRANCH  25  26
ATOM     26  C   LIG    1       -2.550   2.890   0.550  0.00  0.00    +0.352 C 
BRANCH  26  27
ATOM     27  C   LIG    1       -3.890   2.856   1.293  0.00  0.00    +0.343 C 
ATOM     28  O   LIG    1       -4.344   1.867   1.867  0.00  0.00    -0.247 OA
BRANCH  27  29
ATOM     29  O   LIG    1       -4.506   4.071   1.233  0.00  0.00    -0.478 OA
ATOM     30  H   LIG    1       -5.348   4.076   1.693  0.00  0.00    +0.295 HD
ENDBRANCH  27  29
ENDBRANCH  26  27
ENDBRANCH  25  26
ENDBRANCH  23  25
ENDBRANCH  22  23
ENDBRANCH  12  22
TORSDOF 8
