REMARK  Name = DB13099
REMARK                            x       y       z     vdW  Elec       q    Type
REMARK                         _______ _______ _______ _____ _____    ______ ____
ROOT
ATOM      1  C   LIG    1        1.537   0.003  -0.040  0.00  0.00    +0.077 C 
ENDROOT
BRANCH   1   2
ATOM      2  C   LIG    1        2.100   0.679  -1.315  0.00  0.00    +0.214 C 
ATOM      3  N   LIG    1        2.880  -0.057  -2.112  0.00  0.00    -0.329 N 
ATOM      4  H   LIG    1        3.265   0.347  -2.954  0.00  0.00    +0.145 HD
ATOM      5  H   LIG    1        3.088  -1.017  -1.881  0.00  0.00    +0.145 HD
ATOM      6  O   LIG    1        1.832   1.851  -1.575  0.00  0.00    -0.276 OA
ENDBRANCH   1   2
BRANCH   1   7
ATOM      7  C   LIG    1       -0.036  -0.051  -0.052  0.00  0.00    -0.003 C 
ATOM      8  C   LIG    1       -0.597  -0.761  -1.315  0.00  0.00    +0.008 C 
BRANCH   7  10
ATOM      9  C   LIG    1       -2.168  -0.730   1.309  0.00  0.00    +0.004 C 
ATOM     10  C   LIG    1       -0.632  -0.680   1.241  0.00  0.00    +0.000 C 
ENDBRANCH   7  10
ENDBRANCH   1   7
BRANCH   1  11
ATOM     11  C   LIG    1        2.131   0.667   1.242  0.00  0.00    +0.009 C 
ATOM     12  C   LIG    1        3.668   0.772   1.305  0.00  0.00    +0.004 C 
ENDBRANCH   1  11
TORSDOF 4
