REMARK  Name = DB13746
REMARK                            x       y       z     vdW  Elec       q    Type
REMARK                         _______ _______ _______ _____ _____    ______ ____
ROOT
ATOM      1  O   LIG    1        2.375   0.921  -0.023  0.00  0.00    -0.456 OA
ENDROOT
BRANCH   1   6
ATOM      2  C   LIG    1        4.766   2.744  -1.542  0.00  0.00    +0.001 C 
ATOM      3  C   LIG    1        4.844   3.262  -0.174  0.00  0.00    +0.163 C 
ATOM      4  O   LIG    1        5.327   4.346   0.150  0.00  0.00    -0.292 OA
ATOM      5  C   LIG    1        4.241   2.215   0.743  0.00  0.00    +0.128 C 
ATOM      6  C   LIG    1        3.789   1.084  -0.167  0.00  0.00    +0.210 C 
ATOM      7  C   LIG    1        4.183   1.526  -1.566  0.00  0.00    -0.025 C 
ATOM      8  C   LIG    1        3.909   0.621  -2.754  0.00  0.00    +0.043 C 
BRANCH   2   9
ATOM      9  C   LIG    1        5.340   3.592  -2.674  0.00  0.00    +0.065 C 
BRANCH   9  11
ATOM     10  C   LIG    1        3.931   5.054  -4.196  0.00  0.00    +0.004 C 
ATOM     11  C   LIG    1        4.522   4.827  -3.013  0.00  0.00    -0.030 C 
ENDBRANCH   9  11
ENDBRANCH   2   9
ENDBRANCH   1   6
BRANCH   1  12
ATOM     12  C   LIG    1        1.767  -0.274  -0.215  0.00  0.00    +0.312 C 
ATOM     13  O   LIG    1        2.340  -1.319  -0.528  0.00  0.00    -0.250 OA
BRANCH  12  14
ATOM     14  C   LIG    1        0.242  -0.169   0.000  0.00  0.00    +0.111 C 
ATOM     15  C   LIG    1       -0.571  -1.265   0.671  0.00  0.00    -0.014 C 
ATOM     16  C   LIG    1        0.101  -2.559   1.196  0.00  0.00    +0.012 C 
ATOM     17  C   LIG    1       -1.677  -0.771   1.622  0.00  0.00    +0.012 C 
ATOM     18  C   LIG    1       -0.769  -1.030  -0.807  0.00  0.00    +0.032 C 
BRANCH  18  19
ATOM     19  C   LIG    1       -0.299  -2.055  -1.834  0.00  0.00    -0.023 C 
ATOM     20  C   LIG    1       -0.816  -3.286  -2.032  0.00  0.00    -0.079 C 
ATOM     21  C   LIG    1       -1.999  -3.845  -1.257  0.00  0.00    +0.038 C 
ATOM     22  C   LIG    1       -0.246  -4.228  -3.078  0.00  0.00    +0.038 C 
ENDBRANCH  18  19
ENDBRANCH  12  14
ENDBRANCH   1  12
TORSDOF 6
