REMARK  Name = DB13020
REMARK                            x       y       z     vdW  Elec       q    Type
REMARK                         _______ _______ _______ _____ _____    ______ ____
ROOT
ATOM      1  S   LIG    1       -0.565  -0.874   1.183  0.00  0.00    +0.062 S 
ATOM      2  O   LIG    1       -1.177  -1.499   0.004  0.00  0.00    -0.153 OA
ATOM      3  O   LIG    1       -0.625  -1.517   2.501  0.00  0.00    -0.153 OA
ENDROOT
BRANCH   1  10
ATOM      4  C   LIG    1        0.627   2.719  -0.317  0.00  0.00    +0.024 C 
ATOM      5  C   LIG    1       -0.886   2.941  -0.072  0.00  0.00    +0.037 C 
ATOM      6  C   LIG    1       -1.502   3.799  -1.207  0.00  0.00    +0.024 C 
ATOM      7  S   LIG    1       -1.098   3.955   1.444  0.00  0.00    -0.151 S 
ATOM      8  C   LIG    1       -0.385   2.805   2.656  0.00  0.00    +0.087 C 
ATOM      9  C   LIG    1       -1.139   1.467   2.655  0.00  0.00    +0.121 C 
ATOM     10  N   LIG    1       -1.176   0.789   1.327  0.00  0.00    -0.163 NA
ATOM     11  C   LIG    1       -1.594   1.538   0.092  0.00  0.00    +0.183 C 
BRANCH  11  12
ATOM     12  C   LIG    1       -3.157   1.595   0.049  0.00  0.00    +0.256 C 
ATOM     13  N   LIG    1       -3.839   1.331  -1.084  0.00  0.00    -0.196 N 
ATOM     14  H   LIG    1       -4.839   1.378  -1.218  0.00  0.00    +0.182 HD
ATOM     15  O   LIG    1       -3.789   1.887   1.064  0.00  0.00    -0.272 OA
BRANCH  13  16
ATOM     16  O   LIG    1       -3.151   1.045  -2.268  0.00  0.00    -0.295 OA
ATOM     17  H   LIG    1       -3.296   1.831  -2.800  0.00  0.00    +0.241 HD
ENDBRANCH  13  16
ENDBRANCH  11  12
ENDBRANCH   1  10
BRANCH   1  18
ATOM     18  C   LIG    1        1.172  -0.658   0.807  0.00  0.00    +0.106 A 
ATOM     19  C   LIG    1        2.080  -0.445   1.844  0.00  0.00    +0.032 A 
ATOM     20  C   LIG    1        3.426  -0.242   1.557  0.00  0.00    +0.047 A 
ATOM     21  C   LIG    1        3.875  -0.251   0.226  0.00  0.00    +0.122 A 
ATOM     22  C   LIG    1        2.957  -0.466  -0.802  0.00  0.00    +0.047 A 
ATOM     23  C   LIG    1        1.609  -0.669  -0.518  0.00  0.00    +0.032 A 
BRANCH  21  24
ATOM     24  O   LIG    1        5.189  -0.054  -0.154  0.00  0.00    -0.480 OA
BRANCH  24  25
ATOM     25  C   LIG    1        6.179   0.173   0.845  0.00  0.00    +0.317 C 
BRANCH  25  26
ATOM     26  C   LIG    1        7.512   0.369   0.257  0.00  0.00    -0.059 C 
ATOM     27  C   LIG    1        8.623   0.540  -0.221  0.00  0.00    -0.071 C 
BRANCH  27  28
ATOM     28  C   LIG    1        9.955   0.758  -0.804  0.00  0.00    +0.244 C 
BRANCH  28  29
ATOM     29  O   LIG    1       11.007   0.276   0.002  0.00  0.00    -0.383 OA
ATOM     30  H   LIG    1       11.839   0.451  -0.443  0.00  0.00    +0.211 HD
ENDBRANCH  28  29
ENDBRANCH  27  28
ENDBRANCH  25  26
ENDBRANCH  24  25
ENDBRANCH  21  24
ENDBRANCH   1  18
TORSDOF 9
