REMARK  Name = DB13164
REMARK                            x       y       z     vdW  Elec       q    Type
REMARK                         _______ _______ _______ _____ _____    ______ ____
ROOT
ATOM      1  C   LIG    1        2.755   0.417  -0.017  0.00  0.00    +0.223 A 
ATOM      2  N   LIG    1        3.344   1.581   0.377  0.00  0.00    -0.213 NA
ATOM      3  C   LIG    1        4.669   1.546   0.565  0.00  0.00    +0.087 A 
ATOM      4  C   LIG    1        5.476   2.642   0.972  0.00  0.00    +0.036 A 
ATOM      5  C   LIG    1        6.806   2.290   1.077  0.00  0.00    +0.048 A 
ATOM      6  S   LIG    1        7.133   0.616   0.685  0.00  0.00    -0.090 S 
ATOM      7  C   LIG    1        5.423   0.357   0.366  0.00  0.00    +0.100 A 
ATOM      8  C   LIG    1        4.733  -0.793  -0.036  0.00  0.00    +0.239 A 
ATOM      9  N   LIG    1        3.386  -0.764  -0.223  0.00  0.00    -0.178 NA
ENDROOT
BRANCH   1  10
ATOM     10  N   LIG    1        1.367   0.378  -0.209  0.00  0.00    -0.284 N 
ATOM     11  H   LIG    1        1.014  -0.544  -0.416  0.00  0.00    +0.155 HD
BRANCH  10  15
ATOM     12  C   LIG    1       -1.642   3.331  -0.225  0.00  0.00    +0.030 A 
ATOM     13  C   LIG    1       -0.347   3.649  -0.659  0.00  0.00    +0.025 A 
ATOM     14  C   LIG    1        0.660   2.688  -0.657  0.00  0.00    +0.025 A 
ATOM     15  C   LIG    1        0.392   1.390  -0.213  0.00  0.00    +0.034 A 
ATOM     16  C   LIG    1       -0.896   1.061   0.208  0.00  0.00    +0.025 A 
ATOM     17  C   LIG    1       -1.900   2.024   0.208  0.00  0.00    +0.025 A 
BRANCH  12  23
ATOM     18  C   LIG    1       -3.725   6.512  -3.860  0.00  0.00    -0.096 C 
ATOM     19  N   LIG    1       -3.725   5.981  -2.413  0.00  0.00    +0.380 N 
ATOM     20  H   LIG    1       -4.473   6.419  -1.892  0.00  0.00    -0.082 HD
ATOM     21  C   LIG    1       -3.940   4.455  -2.390  0.00  0.00    -0.060 C 
ATOM     22  C   LIG    1       -3.938   3.982  -0.920  0.00  0.00    +0.086 C 
ATOM     23  N   LIG    1       -2.672   4.271  -0.220  0.00  0.00    -0.333 N 
ATOM     24  C   LIG    1       -2.431   5.726  -0.275  0.00  0.00    +0.086 C 
ATOM     25  C   LIG    1       -2.388   6.297  -1.713  0.00  0.00    -0.060 C 
ENDBRANCH  12  23
ENDBRANCH  10  15
ENDBRANCH   1  10
BRANCH   8  26
ATOM     26  O   LIG    1        5.459  -1.953  -0.231  0.00  0.00    -0.437 OA
BRANCH  26  27
ATOM     27  C   LIG    1        4.848  -3.111  -0.652  0.00  0.00    +0.132 A 
ATOM     28  C   LIG    1        4.607  -4.137   0.264  0.00  0.00    +0.069 A 
ATOM     29  C   LIG    1        4.008  -5.333  -0.144  0.00  0.00    +0.037 A 
ATOM     30  C   LIG    1        3.637  -5.485  -1.492  0.00  0.00    +0.023 A 
ATOM     31  C   LIG    1        3.886  -4.464  -2.409  0.00  0.00    +0.005 A 
ATOM     32  C   LIG    1        4.496  -3.282  -1.993  0.00  0.00    +0.046 A 
BRANCH  29  33
ATOM     33  N   LIG    1        3.794  -6.297   0.859  0.00  0.00    -0.282 N 
ATOM     34  H   LIG    1        3.916  -5.953   1.801  0.00  0.00    +0.155 HD
ATOM     35  C   LIG    1        3.516  -7.613   0.734  0.00  0.00    +0.241 C 
ATOM     36  O   LIG    1        3.423  -8.218  -0.336  0.00  0.00    -0.271 OA
BRANCH  35  37
ATOM     37  C   LIG    1        3.343  -8.257   2.017  0.00  0.00    +0.060 C 
ATOM     38  C   LIG    1        3.070  -9.569   2.142  0.00  0.00    +0.013 C 
ENDBRANCH  35  37
ENDBRANCH  29  33
ENDBRANCH  26  27
ENDBRANCH   8  26
TORSDOF 7
