REMARK  Name = DB13012
REMARK                            x       y       z     vdW  Elec       q    Type
REMARK                         _______ _______ _______ _____ _____    ______ ____
ROOT
ATOM      1  C   LIG    1        1.481  -0.441  -0.021  0.00  0.00    -0.003 C 
ATOM      2  C   LIG    1        2.223  -0.707  -1.409  0.00  0.00    -0.021 C 
ATOM      3  C   LIG    1        3.760  -0.821  -1.157  0.00  0.00    +0.001 C 
ATOM      4  C   LIG    1        4.712  -0.949  -2.345  0.00  0.00    +0.009 C 
ATOM      5  C   LIG    1        5.991  -1.587  -1.774  0.00  0.00    +0.031 C 
ATOM      6  C   LIG    1        5.679  -1.846  -0.297  0.00  0.00    -0.070 C 
ATOM      7  C   LIG    1        6.561  -1.872   0.717  0.00  0.00    +0.008 C 
ATOM      8  C   LIG    1        4.154  -1.988  -0.234  0.00  0.00    -0.008 C 
ATOM      9  C   LIG    1        3.758  -3.409  -0.741  0.00  0.00    +0.016 C 
ATOM     10  C   LIG    1        3.498  -1.708   1.135  0.00  0.00    +0.011 C 
ATOM     11  C   LIG    1        1.967  -1.517   1.024  0.00  0.00    +0.005 C 
ENDROOT
BRANCH   1  13
ATOM     12  C   LIG    1       -0.556   1.115  -0.711  0.00  0.00    +0.012 C 
ATOM     13  C   LIG    1       -0.108  -0.215  -0.023  0.00  0.00    -0.024 C 
ATOM     14  C   LIG    1       -0.705  -0.236   1.451  0.00  0.00    +0.023 C 
ATOM     15  C   LIG    1       -2.264  -0.220   1.501  0.00  0.00    +0.037 C 
ATOM     16  C   LIG    1       -2.923  -1.297   0.609  0.00  0.00    +0.115 C 
ATOM     17  C   LIG    1       -2.308  -1.374  -0.804  0.00  0.00    +0.032 C 
ATOM     18  C   LIG    1       -0.767  -1.432  -0.750  0.00  0.00    +0.010 C 
BRANCH  16  19
ATOM     19  O   LIG    1       -4.320  -1.098   0.534  0.00  0.00    -0.392 OA
ATOM     20  H   LIG    1       -4.487  -0.250   0.117  0.00  0.00    +0.210 HD
ENDBRANCH  16  19
BRANCH  14  21
ATOM     21  C   LIG    1       -0.103   0.801   2.446  0.00  0.00    +0.160 C 
BRANCH  21  22
ATOM     22  O   LIG    1       -0.498   2.131   2.175  0.00  0.00    -0.395 OA
ATOM     23  H   LIG    1       -0.144   2.701   2.862  0.00  0.00    +0.209 HD
ENDBRANCH  21  22
ENDBRANCH  14  21
ENDBRANCH   1  13
BRANCH   2  24
ATOM     24  C   LIG    1        1.837   0.151  -2.647  0.00  0.00    -0.082 C 
BRANCH  24  25
ATOM     25  N   LIG    1        2.204   1.631  -2.465  0.00  0.00    +0.378 N 
ATOM     26  H   LIG    1        1.698   2.021  -1.683  0.00  0.00    -0.090 HD
ATOM     27  H   LIG    1        3.195   1.722  -2.291  0.00  0.00    -0.090 HD
ATOM     28  H   LIG    1        1.970   2.152  -3.298  0.00  0.00    -0.090 HD
ENDBRANCH  24  25
ENDBRANCH   2  24
TORSDOF 6
