REMARK  Name = DB13997
REMARK                            x       y       z     vdW  Elec       q    Type
REMARK                         _______ _______ _______ _____ _____    ______ ____
ROOT
ATOM      1  N   LIG    1       -1.292   3.902  -2.055  0.00  0.00    -0.236 N 
ATOM      2  C   LIG    1       -0.640   3.614  -3.353  0.00  0.00    +0.206 C 
ATOM      3  C   LIG    1       -1.637   3.734  -4.552  0.00  0.00    +0.203 C 
ATOM      4  O   LIG    1       -1.077   3.307  -5.787  0.00  0.00    -0.375 OA
ATOM      5  C   LIG    1       -0.636   1.960  -5.758  0.00  0.00    +0.179 C 
ATOM      6  C   LIG    1        0.499   1.839  -4.732  0.00  0.00    +0.138 C 
ATOM      7  N   LIG    1       -0.045   2.238  -3.417  0.00  0.00    -0.272 N 
ATOM      8  C   LIG    1        0.028   1.386  -2.347  0.00  0.00    +0.270 C 
ATOM      9  O   LIG    1        0.459   0.239  -2.488  0.00  0.00    -0.268 OA
ATOM     10  C   LIG    1       -0.389   1.897  -1.036  0.00  0.00    +0.169 A 
ATOM     11  C   LIG    1       -0.556   1.112   0.075  0.00  0.00    +0.201 A 
ATOM     12  C   LIG    1       -0.925   1.645   1.417  0.00  0.00    +0.224 A 
ATOM     13  O   LIG    1       -1.224   0.958   2.393  0.00  0.00    -0.284 OA
ATOM     14  C   LIG    1       -0.855   3.108   1.468  0.00  0.00    +0.074 A 
ATOM     15  C   LIG    1       -0.663   3.882   0.378  0.00  0.00    +0.113 A 
ATOM     16  N   LIG    1       -0.541   3.301  -0.906  0.00  0.00    -0.260 N 
ENDROOT
BRANCH   1  17
ATOM     17  C   LIG    1       -1.834   5.289  -1.899  0.00  0.00    +0.155 C 
ATOM     18  C   LIG    1       -0.736   6.404  -1.934  0.00  0.00    -0.008 A 
ATOM     19  C   LIG    1        0.618   6.195  -1.600  0.00  0.00    +0.007 A 
ATOM     20  C   LIG    1        1.585   7.186  -1.754  0.00  0.00    +0.000 A 
ATOM     21  C   LIG    1        1.230   8.426  -2.267  0.00  0.00    +0.001 A 
ATOM     22  C   LIG    1       -0.094   8.668  -2.613  0.00  0.00    +0.015 A 
ATOM     23  C   LIG    1       -1.064   7.678  -2.442  0.00  0.00    +0.014 A 
ATOM     24  S   LIG    1       -2.734   8.078  -2.792  0.00  0.00    -0.120 S 
ATOM     25  C   LIG    1       -3.270   8.004  -1.069  0.00  0.00    +0.112 C 
ATOM     26  C   LIG    1       -3.648   6.632  -0.500  0.00  0.00    +0.006 A 
ATOM     27  C   LIG    1       -4.688   6.616   0.451  0.00  0.00    +0.163 A 
ATOM     28  F   LIG    1       -5.248   7.775   0.875  0.00  0.00    -0.202 F 
ATOM     29  C   LIG    1       -5.179   5.426   0.972  0.00  0.00    +0.159 A 
ATOM     30  F   LIG    1       -6.184   5.438   1.879  0.00  0.00    -0.202 F 
ATOM     31  C   LIG    1       -4.651   4.223   0.544  0.00  0.00    +0.041 A 
ATOM     32  C   LIG    1       -3.612   4.220  -0.376  0.00  0.00    +0.009 A 
ATOM     33  C   LIG    1       -3.032   5.401  -0.887  0.00  0.00    -0.014 A 
ENDBRANCH   1  17
BRANCH  11  34
ATOM     34  O   LIG    1       -0.468  -0.247   0.016  0.00  0.00    -0.450 OA
BRANCH  34  35
ATOM     35  C   LIG    1        0.639  -0.818   0.657  0.00  0.00    +0.473 C 
BRANCH  35  36
ATOM     36  O   LIG    1        1.433  -1.503  -0.265  0.00  0.00    -0.397 OA
BRANCH  36  37
ATOM     37  C   LIG    1        2.636  -1.944   0.177  0.00  0.00    +0.513 C 
ATOM     38  O   LIG    1        3.101  -1.823   1.317  0.00  0.00    -0.203 OA
BRANCH  37  39
ATOM     39  O   LIG    1        3.242  -2.549  -0.862  0.00  0.00    -0.437 OA
ATOM     40  C   LIG    1        4.528  -3.132  -0.709  0.00  0.00    +0.284 C 
ENDBRANCH  37  39
ENDBRANCH  36  37
ENDBRANCH  35  36
ENDBRANCH  34  35
ENDBRANCH  11  34
TORSDOF 6
