REMARK  Name = DB13284
REMARK                            x       y       z     vdW  Elec       q    Type
REMARK                         _______ _______ _______ _____ _____    ______ ____
ROOT
ATOM      1  C   LIG    1        0.054   2.546   0.098  0.00  0.00    +0.046 C 
ATOM      2  C   LIG    1       -0.656   1.200   0.045  0.00  0.00    -0.024 A 
ATOM      3  C   LIG    1        0.037  -0.022   0.022  0.00  0.00    +0.110 A 
ATOM      4  C   LIG    1       -0.690  -1.214  -0.028  0.00  0.00    +0.056 A 
ATOM      5  C   LIG    1       -2.085  -1.210  -0.065  0.00  0.00    +0.093 A 
ATOM      6  S   LIG    1       -2.880  -2.818  -0.011  0.00  0.00    -0.003 S 
ATOM      7  O   LIG    1       -2.333  -3.646  -1.091  0.00  0.00    -0.169 OA
ATOM      8  O   LIG    1       -2.777  -3.309   1.368  0.00  0.00    -0.169 OA
ATOM      9  C   LIG    1       -4.680  -2.408  -0.381  0.00  0.00    +0.172 C 
ATOM     10  C   LIG    1       -5.058  -1.138   0.385  0.00  0.00    +0.028 C 
ATOM     11  C   LIG    1       -4.318   0.084  -0.180  0.00  0.00    +0.038 C 
ATOM     12  C   LIG    1       -2.795   0.007  -0.065  0.00  0.00    -0.022 A 
ATOM     13  C   LIG    1       -2.053   1.192  -0.001  0.00  0.00    +0.010 A 
ENDROOT
BRANCH   3  14
ATOM     14  S   LIG    1        1.837  -0.116   0.073  0.00  0.00    +0.056 S 
ATOM     15  O   LIG    1        2.216  -1.532   0.134  0.00  0.00    -0.153 OA
ATOM     16  O   LIG    1        2.301   0.822   1.101  0.00  0.00    -0.153 OA
BRANCH  14  17
ATOM     17  N   LIG    1        2.362   0.492  -1.486  0.00  0.00    -0.204 NA
ATOM     18  H   LIG    1        2.107  -0.101  -2.280  0.00  0.00    +0.144 HD
ATOM     19  H   LIG    1        2.164   1.483  -1.644  0.00  0.00    +0.144 HD
ENDBRANCH  14  17
ENDBRANCH   3  14
TORSDOF 2
