REMARK  Name = DB13679
REMARK                            x       y       z     vdW  Elec       q    Type
REMARK                         _______ _______ _______ _____ _____    ______ ____
ROOT
ATOM      1  C   LIG    1       -0.565   1.422  -0.225  0.00  0.00    +0.066 C 
ENDROOT
BRANCH   1   6
ATOM      2 CL   LIG    1        1.376   4.584  -5.000  0.00  0.00    -0.084 Cl
ATOM      3  C   LIG    1        0.817   3.682  -3.639  0.00  0.00    +0.041 A 
ATOM      4  C   LIG    1        0.112   2.496  -3.838  0.00  0.00    +0.020 A 
ATOM      5  C   LIG    1       -0.337   1.768  -2.740  0.00  0.00    +0.006 A 
ATOM      6  C   LIG    1       -0.087   2.225  -1.441  0.00  0.00    -0.038 A 
ATOM      7  C   LIG    1        0.622   3.416  -1.252  0.00  0.00    +0.006 A 
ATOM      8  C   LIG    1        1.073   4.144  -2.349  0.00  0.00    +0.020 A 
ENDBRANCH   1   6
BRANCH   1   9
ATOM      9  C   LIG    1       -2.088   1.470  -0.064  0.00  0.00    +0.049 A 
ATOM     10  N   LIG    1       -2.820   0.609  -0.826  0.00  0.00    -0.259 NA
ATOM     11  C   LIG    1       -4.172   0.635  -0.703  0.00  0.00    +0.111 A 
ATOM     12  C   LIG    1       -4.837   1.498   0.169  0.00  0.00    +0.020 A 
ATOM     13  C   LIG    1       -4.077   2.373   0.947  0.00  0.00    +0.003 A 
ATOM     14  C   LIG    1       -2.685   2.364   0.834  0.00  0.00    +0.024 A 
ENDBRANCH   1   9
BRANCH   1  15
ATOM     15  C   LIG    1        0.007  -0.021  -0.194  0.00  0.00    -0.004 C 
BRANCH  15  16
ATOM     16  C   LIG    1        1.548  -0.069  -0.157  0.00  0.00    -0.079 C 
BRANCH  16  17
ATOM     17  N   LIG    1        2.066  -1.512   0.049  0.00  0.00    +0.376 N 
ATOM     18  H   LIG    1        1.594  -1.884   0.861  0.00  0.00    -0.083 HD
ATOM     19  C   LIG    1        3.574  -1.518   0.369  0.00  0.00    -0.097 C 
ATOM     20  C   LIG    1        1.759  -2.451  -1.136  0.00  0.00    -0.097 C 
ENDBRANCH  16  17
ENDBRANCH  15  16
ENDBRANCH   1  15
TORSDOF 5
