REMARK  Name = DB13119
REMARK                            x       y       z     vdW  Elec       q    Type
REMARK                         _______ _______ _______ _____ _____    ______ ____
ROOT
ATOM      1  C   LIG    1       -2.694   2.215  -1.016  0.00  0.00    +0.152 C 
ATOM      2  N   LIG    1       -2.075   1.145  -0.200  0.00  0.00    -0.313 N 
ATOM      3  C   LIG    1       -0.720   1.138   0.190  0.00  0.00    +0.209 A 
ATOM      4  C   LIG    1        0.035  -0.009   0.339  0.00  0.00    +0.145 A 
ATOM      5  C   LIG    1       -0.632  -1.331   0.127  0.00  0.00    +0.223 A 
ATOM      6  O   LIG    1       -0.048  -2.409  -0.030  0.00  0.00    -0.285 OA
ATOM      7  C   LIG    1       -2.135  -1.264   0.143  0.00  0.00    +0.135 A 
ATOM      8  N   LIG    1       -2.802  -2.441   0.316  0.00  0.00    -0.249 NA
ATOM      9  C   LIG    1       -4.157  -2.431   0.334  0.00  0.00    +0.115 A 
ATOM     10  C   LIG    1       -4.910  -1.268   0.175  0.00  0.00    -0.023 A 
ATOM     11  C   LIG    1       -4.228  -0.061   0.006  0.00  0.00    +0.033 A 
ATOM     12  C   LIG    1       -2.824  -0.044  -0.022  0.00  0.00    +0.074 A 
ENDROOT
BRANCH   4  13
ATOM     13  C   LIG    1        1.458  -0.036   0.710  0.00  0.00    +0.253 C 
ATOM     14  N   LIG    1        2.243   0.837   0.048  0.00  0.00    -0.309 N 
ATOM     15  H   LIG    1        1.803   1.457  -0.616  0.00  0.00    +0.149 HD
ATOM     16  O   LIG    1        1.914  -0.842   1.525  0.00  0.00    -0.270 OA
BRANCH  14  17
ATOM     17  C   LIG    1        3.688   0.992   0.222  0.00  0.00    +0.132 C 
BRANCH  17  18
ATOM     18  C   LIG    1        4.091   2.077   1.241  0.00  0.00    +0.174 C 
BRANCH  18  19
ATOM     19  O   LIG    1        3.624   1.784   2.542  0.00  0.00    -0.393 OA
ATOM     20  H   LIG    1        3.830   2.524   3.117  0.00  0.00    +0.209 HD
ENDBRANCH  18  19
ENDBRANCH  17  18
ENDBRANCH  14  17
ENDBRANCH   4  13
BRANCH   3  21
ATOM     21  O   LIG    1       -0.324   2.342   0.480  0.00  0.00    -0.493 OA
ATOM     22  H   LIG    1       -0.901   3.069   0.349  0.00  0.00    +0.294 HD
ENDBRANCH   3  21
BRANCH  10  23
ATOM     23  C   LIG    1       -6.429  -1.306   0.236  0.00  0.00    +0.071 C 
BRANCH  23  24
ATOM     24  C   LIG    1       -7.080  -1.452  -1.132  0.00  0.00    -0.043 A 
ATOM     25  C   LIG    1       -7.517  -0.318  -1.823  0.00  0.00    +0.007 A 
ATOM     26  C   LIG    1       -8.135  -0.456  -3.063  0.00  0.00    +0.038 A 
ATOM     27  C   LIG    1       -8.321  -1.726  -3.606  0.00  0.00    +0.123 A 
ATOM     28  F   LIG    1       -8.921  -1.858  -4.811  0.00  0.00    -0.205 F 
ATOM     29  C   LIG    1       -7.895  -2.860  -2.917  0.00  0.00    +0.038 A 
ATOM     30  C   LIG    1       -7.278  -2.724  -1.677  0.00  0.00    +0.007 A 
ENDBRANCH  23  24
ENDBRANCH  10  23
TORSDOF 7
