REMARK  Name = DB13981
REMARK                            x       y       z     vdW  Elec       q    Type
REMARK                         _______ _______ _______ _____ _____    ______ ____
ROOT
ATOM      1  C   LIG    1       -2.270  -0.170  -1.426  0.00  0.00    +0.016 C 
ATOM      2  C   LIG    1       -0.787  -0.624  -1.176  0.00  0.00    +0.018 C 
ATOM      3  C   LIG    1        0.024  -0.491  -2.503  0.00  0.00    +0.011 C 
ATOM      4  C   LIG    1       -0.493  -1.462  -3.597  0.00  0.00    +0.005 C 
ATOM      5  C   LIG    1       -0.483  -2.942  -3.116  0.00  0.00    +0.004 C 
ATOM      6  C   LIG    1       -0.962  -3.979  -4.171  0.00  0.00    +0.023 C 
ATOM      7  C   LIG    1       -0.245  -3.856  -5.543  0.00  0.00    +0.016 C 
ATOM      8  C   LIG    1       -0.529  -5.032  -6.494  0.00  0.00    +0.079 C 
ATOM      9  C   LIG    1       -0.232  -6.376  -5.824  0.00  0.00    +0.156 C 
ATOM     10  O   LIG    1        0.121  -7.361  -6.470  0.00  0.00    -0.293 OA
ATOM     11  C   LIG    1       -0.493  -6.456  -4.391  0.00  0.00    +0.050 C 
ATOM     12  C   LIG    1       -0.820  -5.409  -3.588  0.00  0.00    -0.038 C 
ATOM     13  C   LIG    1       -1.046  -5.612  -2.145  0.00  0.00    -0.051 C 
ATOM     14  C   LIG    1       -1.076  -7.008  -1.527  0.00  0.00    +0.044 C 
ATOM     15  C   LIG    1       -1.264  -4.555  -1.333  0.00  0.00    -0.019 C 
ATOM     16  C   LIG    1       -1.265  -3.095  -1.772  0.00  0.00    +0.019 C 
ATOM     17  C   LIG    1       -0.675  -2.110  -0.727  0.00  0.00    +0.006 C 
ATOM     18  C   LIG    1       -1.201  -2.126   0.716  0.00  0.00    +0.009 C 
ATOM     19  C   LIG    1       -0.870  -0.726   1.272  0.00  0.00    +0.057 C 
ATOM     20  C   LIG    1       -0.187   0.071   0.107  0.00  0.00    +0.176 C 
ENDROOT
BRANCH  20  21
ATOM     21  C   LIG    1       -0.434   1.617   0.164  0.00  0.00    +0.174 C 
ATOM     22  O   LIG    1       -1.155   2.130   1.020  0.00  0.00    -0.293 OA
ATOM     23  C   LIG    1        0.243   2.508  -0.879  0.00  0.00    +0.090 C 
ENDBRANCH  20  21
BRANCH  20  24
ATOM     24  O   LIG    1        1.256  -0.122   0.109  0.00  0.00    -0.450 OA
BRANCH  24  25
ATOM     25  C   LIG    1        2.121   0.208   1.118  0.00  0.00    +0.305 C 
ATOM     26  O   LIG    1        1.831   0.741   2.189  0.00  0.00    -0.251 OA
ATOM     27  C   LIG    1        3.561  -0.154   0.779  0.00  0.00    +0.136 C 
ENDBRANCH  24  25
ENDBRANCH  20  24
TORSDOF 3
