REMARK  Name = DB13111
REMARK                            x       y       z     vdW  Elec       q    Type
REMARK                         _______ _______ _______ _____ _____    ______ ____
ROOT
ATOM      1  C   LIG    1       -0.028  -0.013   0.021  0.00  0.00    +0.048 C 
ATOM      2  C   LIG    1        1.504  -0.001   0.019  0.00  0.00    -0.002 A 
ATOM      3  C   LIG    1        2.203   1.217   0.008  0.00  0.00    +0.123 A 
ATOM      4  C   LIG    1        3.607   1.236  -0.020  0.00  0.00    -0.002 A 
ATOM      5  C   LIG    1        4.334   0.033  -0.047  0.00  0.00    +0.001 A 
ATOM      6  C   LIG    1        3.621  -1.184  -0.034  0.00  0.00    +0.128 A 
ATOM      7  O   LIG    1        4.253  -2.417  -0.148  0.00  0.00    -0.486 OA
ATOM      8  C   LIG    1        5.621  -2.513   0.272  0.00  0.00    +0.105 C 
ATOM      9  C   LIG    1        6.393  -1.384  -0.455  0.00  0.00    +0.052 C 
ATOM     10  C   LIG    1        5.715  -2.406   1.815  0.00  0.00    +0.055 C 
ATOM     11  C   LIG    1        6.105  -3.875  -0.259  0.00  0.00    +0.055 C 
ATOM     12  C   LIG    1        5.867   0.003  -0.057  0.00  0.00    +0.043 C 
ATOM     13  C   LIG    1        4.360   2.569  -0.001  0.00  0.00    +0.048 C 
ATOM     14  C   LIG    1        2.219  -1.211   0.003  0.00  0.00    -0.002 A 
ATOM     15  C   LIG    1        1.482  -2.552   0.039  0.00  0.00    +0.048 C 
ENDROOT
BRANCH   3  16
ATOM     16  O   LIG    1        1.505   2.402   0.027  0.00  0.00    -0.506 OA
ATOM     17  H   LIG    1        0.554   2.272   0.048  0.00  0.00    +0.292 HD
ENDBRANCH   3  16
TORSDOF 1
