REMARK  Name = DB13207
REMARK                            x       y       z     vdW  Elec       q    Type
REMARK                         _______ _______ _______ _____ _____    ______ ____
ROOT
ATOM      1  CG  ARG A  1        0.129   0.108   0.130  0.00  0.00    +0.014 C 
ENDROOT
BRANCH   1   2
ATOM      2  CD  ARG A  1       -0.360   1.567   0.041  0.00  0.00    +0.084 C 
BRANCH   2   3
ATOM      3  NE  ARG A  1        0.215   2.433   1.088  0.00  0.00    -0.283 NA
ATOM      4  HE  ARG A  1        0.843   1.976   1.734  0.00  0.00    +0.125 HD
BRANCH   3   5
ATOM      5  CZ  ARG A  1       -0.015   3.749   1.268  0.00  0.00    +0.167 C 
BRANCH   5   6
ATOM      6  NH2 ARG A  1        0.595   4.379   2.281  0.00  0.00    -0.297 NA
ATOM      7 HH21 ARG A  1        0.434   5.364   2.438  0.00  0.00    +0.121 HD
ATOM      8 HH22 ARG A  1        1.215   3.871   2.896  0.00  0.00    +0.121 HD
ENDBRANCH   5   6
BRANCH   5   9
ATOM      9  NH1 ARG A  1       -0.835   4.453   0.469  0.00  0.00    -0.297 NA
ATOM     10 HH11 ARG A  1       -1.306   3.996  -0.300  0.00  0.00    +0.121 HD
ATOM     11 HH12 ARG A  1       -0.986   5.438   0.632  0.00  0.00    +0.121 HD
ENDBRANCH   5   9
ENDBRANCH   3   5
ENDBRANCH   2   3
ENDBRANCH   1   2
BRANCH   1  12
ATOM     12  CB  ARG A  1        1.607  -0.093  -0.280  0.00  0.00    -0.004 C 
BRANCH  12  13
ATOM     13  CA  ARG A  1        2.094  -1.571  -0.222  0.00  0.00    +0.036 C 
BRANCH  13  14
ATOM     14  N   ARG A  1        3.590  -1.654  -0.097  0.00  0.00    +0.387 N 
ATOM     15  H1  ARG A  1        4.013  -1.240  -0.916  0.00  0.00    -0.089 HD
ATOM     16  H2  ARG A  1        3.877  -1.150   0.729  0.00  0.00    -0.089 HD
ATOM     17  H3  ARG A  1        3.858  -2.624  -0.015  0.00  0.00    -0.089 HD
ENDBRANCH  13  14
BRANCH  13  18
ATOM     18  C   ARG A  1        1.683  -2.465  -1.459  0.00  0.00    +0.290 C 
ATOM     19  OXT ARG A  1        0.708  -2.058  -2.130  0.00  0.00    -0.253 OA
BRANCH  18  20
ATOM     20  O   ARG A  1        2.304  -3.548  -1.587  0.00  0.00    -0.482 OA
ATOM     21  H   ARG A  1        2.104  -4.121  -2.301  0.00  0.00    +0.295 HD
ENDBRANCH  18  20
ENDBRANCH  13  18
ENDBRANCH  12  13
ENDBRANCH   1  12
TORSDOF 10
