REMARK  Name = DB13868
REMARK                            x       y       z     vdW  Elec       q    Type
REMARK                         _______ _______ _______ _____ _____    ______ ____
ROOT
ATOM      1  N   LIG    1        1.482  -2.152   1.251  0.00  0.00    -0.313 N 
ATOM      2  C   LIG    1        2.180  -2.336   2.389  0.00  0.00    +0.201 A 
ATOM      3  N   LIG    1        1.525  -3.028   3.289  0.00  0.00    -0.231 NA
ATOM      4  C   LIG    1        0.343  -3.302   2.708  0.00  0.00    +0.147 A 
ATOM      5  C   LIG    1       -0.789  -4.013   3.174  0.00  0.00    +0.147 A 
ATOM      6  N   LIG    1       -1.864  -4.128   2.346  0.00  0.00    -0.219 NA
ATOM      7  C   LIG    1       -1.786  -3.562   1.133  0.00  0.00    +0.225 A 
ATOM      8  N   LIG    1       -0.774  -2.876   0.579  0.00  0.00    -0.216 NA
ATOM      9  C   LIG    1        0.277  -2.772   1.430  0.00  0.00    +0.165 A 
ENDROOT
BRANCH   5  10
ATOM     10  N   LIG    1       -0.852  -4.600   4.436  0.00  0.00    -0.341 N 
ATOM     11  H   LIG    1       -1.691  -5.090   4.711  0.00  0.00    +0.144 HD
ATOM     12  H   LIG    1       -0.064  -4.514   5.062  0.00  0.00    +0.144 HD
ENDBRANCH   5  10
BRANCH   1  13
ATOM     13  C   LIG    1        1.935  -1.410   0.061  0.00  0.00    +0.153 C 
BRANCH  13  14
ATOM     14  C   LIG    1        1.376   0.023   0.033  0.00  0.00    +0.182 C 
BRANCH  14  15
ATOM     15  O   LIG    1       -0.038  -0.017  -0.093  0.00  0.00    -0.366 OA
BRANCH  15  16
ATOM     16  C   LIG    1       -0.659   1.259  -0.093  0.00  0.00    +0.286 C 
BRANCH  16  17
ATOM     17  P   LIG    1       -2.515   1.016  -0.194  0.00  0.00    +0.353 P 
ATOM     18  O   LIG    1       -3.007   0.419   1.105  0.00  0.00    -0.256 OA
BRANCH  17  19
ATOM     19  O   LIG    1       -2.931   2.679  -0.212  0.00  0.00    -0.323 OA
ATOM     20  H   LIG    1       -2.958   3.219  -1.025  0.00  0.00    +0.220 HD
ENDBRANCH  17  19
BRANCH  17  21
ATOM     21  O   LIG    1       -2.864   0.436  -1.547  0.00  0.00    -0.323 OA
ATOM     22  H   LIG    1       -3.824   0.308  -1.605  0.00  0.00    +0.220 HD
ENDBRANCH  17  21
ENDBRANCH  16  17
ENDBRANCH  15  16
ENDBRANCH  14  15
ENDBRANCH  13  14
ENDBRANCH   1  13
TORSDOF 8
