REMARK  Name = DB13345
REMARK                            x       y       z     vdW  Elec       q    Type
REMARK                         _______ _______ _______ _____ _____    ______ ____
ROOT
ATOM      1  C   LIG    1        1.439   0.379   0.175  0.00  0.00    +0.220 C 
ATOM      2  O   LIG    1        2.025   1.279  -0.726  0.00  0.00    -0.298 OA
ATOM      3  C   LIG    1        2.173   0.661  -1.965  0.00  0.00    +0.269 C 
ATOM      4  C   LIG    1        3.444   1.182  -2.646  0.00  0.00    +0.156 C 
ATOM      5  C   LIG    1        3.409   2.609  -3.218  0.00  0.00    +0.031 C 
ATOM      6  C   LIG    1        3.477   2.444  -4.729  0.00  0.00    +0.021 C 
ATOM      7  C   LIG    1        4.239   1.139  -4.954  0.00  0.00    +0.108 C 
ATOM      8  N   LIG    1        3.814   0.342  -3.804  0.00  0.00    -0.290 N 
ATOM      9  C   LIG    1        3.761  -1.018  -3.769  0.00  0.00    +0.237 C 
ATOM     10  O   LIG    1        4.252  -1.703  -4.667  0.00  0.00    -0.274 OA
ATOM     11  C   LIG    1        2.986  -1.649  -2.562  0.00  0.00    +0.171 C 
ATOM     12  N   LIG    1        2.454  -0.682  -1.575  0.00  0.00    -0.233 N 
ATOM     13  C   LIG    1        2.004  -0.971  -0.340  0.00  0.00    +0.271 C 
ATOM     14  O   LIG    1        2.016  -2.043   0.266  0.00  0.00    -0.270 OA
ENDROOT
BRANCH   1  17
ATOM     15  C   LIG    1       -0.853   1.361  -0.129  0.00  0.00    +0.220 C 
ATOM     16  O   LIG    1       -0.493   2.539  -0.176  0.00  0.00    -0.275 OA
ATOM     17  N   LIG    1       -0.003   0.327   0.028  0.00  0.00    -0.280 N 
ATOM     18  H   LIG    1       -0.409  -0.596   0.074  0.00  0.00    +0.152 HD
BRANCH  15  23
ATOM     19  C   LIG    1       -3.819  -1.383  -3.897  0.00  0.00    +0.004 A 
ATOM     20  C   LIG    1       -4.611  -0.751  -2.927  0.00  0.00    -0.033 A 
ATOM     21  C   LIG    1       -4.124  -0.121  -1.617  0.00  0.00    +0.038 C 
ATOM     22  C   LIG    1       -2.648   0.350  -1.651  0.00  0.00    +0.023 C 
ATOM     23  C   LIG    1       -2.340   0.983  -0.286  0.00  0.00    +0.090 C 
ATOM     24  C   LIG    1       -3.295   2.158   0.003  0.00  0.00    +0.097 C 
ATOM     25  N   LIG    1       -4.665   1.644   0.133  0.00  0.00    -0.301 NA
ATOM     26  C   LIG    1       -5.521   2.751   0.564  0.00  0.00    +0.105 C 
ATOM     27  C   LIG    1       -5.126   1.009  -1.130  0.00  0.00    +0.068 C 
ATOM     28  C   LIG    1       -6.603   0.484  -1.052  0.00  0.00    +0.056 C 
ATOM     29  C   LIG    1       -6.995  -0.163  -2.374  0.00  0.00    -0.021 A 
ATOM     30  C   LIG    1       -8.174  -0.380  -3.069  0.00  0.00    +0.087 A 
ATOM     31  N   LIG    1       -7.906  -1.052  -4.247  0.00  0.00    -0.360 N 
ATOM     32  H   LIG    1       -8.631  -1.308  -4.901  0.00  0.00    +0.165 HD
ATOM     33  C   LIG    1       -6.549  -1.290  -4.359  0.00  0.00    +0.047 A 
ATOM     34  C   LIG    1       -5.745  -1.911  -5.319  0.00  0.00    +0.026 A 
ATOM     35  C   LIG    1       -5.983  -0.736  -3.194  0.00  0.00    +0.006 A 
ATOM     36  C   LIG    1       -4.370  -1.943  -5.055  0.00  0.00    +0.002 A 
ENDBRANCH  15  23
ENDBRANCH   1  17
BRANCH   1  37
ATOM     37  C   LIG    1        1.929   0.693   1.629  0.00  0.00    +0.043 C 
ATOM     38  C   LIG    1        1.989   2.206   1.936  0.00  0.00    +0.012 C 
ATOM     39  C   LIG    1        1.123  -0.048   2.723  0.00  0.00    +0.012 C 
ENDBRANCH   1  37
BRANCH   3  40
ATOM     40  O   LIG    1        1.061   0.759  -2.777  0.00  0.00    -0.348 OA
ATOM     41  H   LIG    1        1.358   0.694  -3.688  0.00  0.00    +0.214 HD
ENDBRANCH   3  40
BRANCH  11  42
ATOM     42  C   LIG    1        1.811  -2.531  -3.094  0.00  0.00    +0.067 C 
BRANCH  42  43
ATOM     43  C   LIG    1        2.239  -3.847  -3.735  0.00  0.00    -0.045 A 
ATOM     44  C   LIG    1        2.785  -4.860  -2.941  0.00  0.00    +0.004 A 
ATOM     45  C   LIG    1        3.176  -6.064  -3.522  0.00  0.00    +0.000 A 
ATOM     46  C   LIG    1        3.018  -6.251  -4.893  0.00  0.00    +0.000 A 
ATOM     47  C   LIG    1        2.471  -5.247  -5.690  0.00  0.00    +0.000 A 
ATOM     48  C   LIG    1        2.080  -4.043  -5.110  0.00  0.00    +0.004 A 
ENDBRANCH  42  43
ENDBRANCH  11  42
TORSDOF 6
