REMARK  Name = DB13101
REMARK                            x       y       z     vdW  Elec       q    Type
REMARK                         _______ _______ _______ _____ _____    ______ ____
ROOT
ATOM      1  N   LIG    1        1.341  -0.552   0.054  0.00  0.00    -0.225 N 
ATOM      2  C   LIG    1        2.139  -0.398  -1.056  0.00  0.00    +0.119 A 
ATOM      3  C   LIG    1        3.450  -0.099  -0.693  0.00  0.00    -0.006 A 
ATOM      4  C   LIG    1        3.428  -0.059   0.707  0.00  0.00    +0.029 A 
ATOM      5  C   LIG    1        2.141  -0.322   1.145  0.00  0.00    +0.112 A 
ENDROOT
BRANCH   1   6
ATOM      6  S   LIG    1       -0.364  -0.337   0.045  0.00  0.00    +0.084 S 
ATOM      7  O   LIG    1       -0.843  -0.923  -1.213  0.00  0.00    -0.148 OA
ATOM      8  O   LIG    1       -0.842  -0.818   1.347  0.00  0.00    -0.148 OA
BRANCH   6  12
ATOM      9  C   LIG    1       -0.902   4.209  -0.156  0.00  0.00    -0.015 A 
ATOM     10  C   LIG    1       -0.759   3.462  -1.330  0.00  0.00    +0.010 A 
ATOM     11  C   LIG    1       -0.601   2.080  -1.269  0.00  0.00    +0.029 A 
ATOM     12  C   LIG    1       -0.588   1.437  -0.031  0.00  0.00    +0.111 A 
ATOM     13  C   LIG    1       -0.725   2.174   1.146  0.00  0.00    +0.029 A 
ATOM     14  C   LIG    1       -0.884   3.555   1.082  0.00  0.00    +0.010 A 
BRANCH   9  19
ATOM     15  C   LIG    1       -1.664   9.094   0.920  0.00  0.00    +0.172 C 
ATOM     16  N   LIG    1       -1.414   7.828   0.255  0.00  0.00    -0.274 N 
ATOM     17  N   LIG    1       -1.181   7.811  -1.061  0.00  0.00    -0.179 NA
ATOM     18  C   LIG    1       -0.983   6.543  -1.341  0.00  0.00    +0.142 A 
ATOM     19  C   LIG    1       -1.071   5.694  -0.221  0.00  0.00    +0.020 A 
ATOM     20  C   LIG    1       -1.352   6.579   0.814  0.00  0.00    +0.116 A 
ENDBRANCH   9  19
ENDBRANCH   6  12
ENDBRANCH   1   6
BRANCH   3  21
ATOM     21  C   LIG    1        4.593   0.138  -1.554  0.00  0.00    +0.014 C 
ATOM     22  C   LIG    1        4.613   0.056  -2.901  0.00  0.00    +0.068 C 
BRANCH  22  23
ATOM     23  C   LIG    1        5.803   0.317  -3.681  0.00  0.00    +0.241 C 
ATOM     24  N   LIG    1        5.590   0.191  -5.008  0.00  0.00    -0.280 N 
ATOM     25  H   LIG    1        4.698  -0.184  -5.299  0.00  0.00    +0.155 HD
ATOM     26  O   LIG    1        6.885   0.626  -3.175  0.00  0.00    -0.270 OA
BRANCH  24  27
ATOM     27  C   LIG    1        6.523   0.396  -6.046  0.00  0.00    +0.054 A 
ATOM     28  C   LIG    1        6.491  -0.436  -7.183  0.00  0.00    +0.046 A 
ATOM     29  C   LIG    1        7.390  -0.216  -8.231  0.00  0.00    +0.024 A 
ATOM     30  C   LIG    1        8.315   0.824  -8.163  0.00  0.00    +0.002 A 
ATOM     31  C   LIG    1        8.343   1.659  -7.048  0.00  0.00    +0.002 A 
ATOM     32  C   LIG    1        7.450   1.452  -5.998  0.00  0.00    +0.025 A 
BRANCH  28  33
ATOM     33  N   LIG    1        5.583  -1.493  -7.305  0.00  0.00    -0.357 N 
ATOM     34  H   LIG    1        5.375  -1.989  -6.450  0.00  0.00    +0.142 HD
ATOM     35  H   LIG    1        5.649  -2.030  -8.157  0.00  0.00    +0.142 HD
ENDBRANCH  28  33
ENDBRANCH  24  27
ENDBRANCH  22  23
ENDBRANCH   3  21
TORSDOF 7
