REMARK  Name = DB13106
REMARK                            x       y       z     vdW  Elec       q    Type
REMARK                         _______ _______ _______ _____ _____    ______ ____
ROOT
ATOM      1  N   LIG    1       -0.293   1.085   0.407  0.00  0.00    -0.289 NA
ATOM      2  C   LIG    1        0.335  -0.204   0.020  0.00  0.00    +0.139 C 
ATOM      3  C   LIG    1       -0.328  -0.805  -1.265  0.00  0.00    +0.241 C 
ATOM      4  C   LIG    1       -1.880  -0.787  -1.250  0.00  0.00    +0.260 C 
ATOM      5  C   LIG    1       -2.400   0.597  -0.801  0.00  0.00    +0.234 C 
ATOM      6  C   LIG    1       -1.753   0.995   0.536  0.00  0.00    +0.133 C 
ENDROOT
BRANCH   1   7
ATOM      7  C   LIG    1        0.259   1.686   1.631  0.00  0.00    +0.085 C 
BRANCH   7   8
ATOM      8  C   LIG    1        1.044   2.965   1.279  0.00  0.00    +0.015 C 
BRANCH   8  10
ATOM      9  C   LIG    1        2.835   2.851   3.138  0.00  0.00    +0.004 C 
ATOM     10  C   LIG    1        1.694   3.653   2.495  0.00  0.00    -0.002 C 
ENDBRANCH   8  10
ENDBRANCH   7   8
ENDBRANCH   1   7
BRANCH   2  11
ATOM     11  C   LIG    1        1.871  -0.141  -0.210  0.00  0.00    +0.254 C 
BRANCH  11  12
ATOM     12  O   LIG    1        2.596  -0.197   1.012  0.00  0.00    -0.463 OA
BRANCH  12  13
ATOM     13  C   LIG    1        3.944  -0.213   1.012  0.00  0.00    +0.307 C 
ATOM     14  O   LIG    1        4.673  -0.172   0.019  0.00  0.00    -0.251 OA
BRANCH  13  15
ATOM     15  C   LIG    1        4.529  -0.320   2.424  0.00  0.00    +0.120 C 
BRANCH  15  16
ATOM     16  C   LIG    1        5.213  -1.672   2.712  0.00  0.00    +0.008 C 
ATOM     17  C   LIG    1        4.256  -2.877   2.724  0.00  0.00    +0.004 C 
ENDBRANCH  15  16
ENDBRANCH  13  15
ENDBRANCH  12  13
ENDBRANCH  11  12
ENDBRANCH   2  11
BRANCH   3  18
ATOM     18  O   LIG    1        0.105  -2.161  -1.427  0.00  0.00    -0.456 OA
BRANCH  18  19
ATOM     19  C   LIG    1        0.540  -2.647  -2.613  0.00  0.00    +0.307 C 
ATOM     20  O   LIG    1        0.657  -2.012  -3.662  0.00  0.00    -0.251 OA
BRANCH  19  21
ATOM     21  C   LIG    1        0.856  -4.145  -2.548  0.00  0.00    +0.120 C 
BRANCH  21  22
ATOM     22  C   LIG    1        0.056  -4.995  -3.559  0.00  0.00    +0.008 C 
ATOM     23  C   LIG    1       -1.462  -5.017  -3.306  0.00  0.00    +0.004 C 
ENDBRANCH  21  22
ENDBRANCH  19  21
ENDBRANCH  18  19
ENDBRANCH   3  18
BRANCH   4  24
ATOM     24  O   LIG    1       -2.490  -1.273  -2.455  0.00  0.00    -0.454 OA
BRANCH  24  25
ATOM     25  C   LIG    1       -2.410  -0.638  -3.655  0.00  0.00    +0.308 C 
ATOM     26  O   LIG    1       -1.797   0.404  -3.889  0.00  0.00    -0.251 OA
BRANCH  25  27
ATOM     27  C   LIG    1       -3.180  -1.366  -4.758  0.00  0.00    +0.120 C 
BRANCH  27  28
ATOM     28  C   LIG    1       -4.675  -1.560  -4.436  0.00  0.00    +0.008 C 
ATOM     29  C   LIG    1       -5.429  -2.266  -5.569  0.00  0.00    +0.004 C 
ENDBRANCH  27  28
ENDBRANCH  25  27
ENDBRANCH  24  25
ENDBRANCH   4  24
BRANCH   5  30
ATOM     30  O   LIG    1       -3.828   0.735  -0.814  0.00  0.00    -0.456 OA
BRANCH  30  31
ATOM     31  C   LIG    1       -4.665  -0.015  -0.053  0.00  0.00    +0.307 C 
ATOM     32  O   LIG    1       -4.328  -0.876   0.762  0.00  0.00    -0.251 OA
BRANCH  31  33
ATOM     33  C   LIG    1       -6.134   0.325  -0.332  0.00  0.00    +0.120 C 
BRANCH  33  34
ATOM     34  C   LIG    1       -7.155  -0.563   0.410  0.00  0.00    +0.008 C 
ATOM     35  C   LIG    1       -8.605  -0.196   0.070  0.00  0.00    +0.004 C 
ENDBRANCH  33  34
ENDBRANCH  31  33
ENDBRANCH  30  31
ENDBRANCH   5  30
TORSDOF 20
