REMARK  Name = DB13086
REMARK                            x       y       z     vdW  Elec       q    Type
REMARK                         _______ _______ _______ _____ _____    ______ ____
ROOT
ATOM      1  N   LIG    1        1.432  -0.200  -0.076  0.00  0.00    +0.000 N 
ATOM      2  H   LIG    1        1.838   0.587   0.409  0.00  0.00    +0.000 HD
ATOM      3  C   LIG    1        2.303  -1.082  -0.614  0.00  0.00    +0.000 C 
ATOM      4  O   LIG    1        1.998  -2.044  -1.321  0.00  0.00    +0.000 OA
ENDROOT
BRANCH   1  13
ATOM      5  B   LIG    1       -3.319  -2.216  -0.699  0.00  0.00    +0.000 B 
ATOM      6  O   LIG    1       -4.517  -1.575  -0.456  0.00  0.00    +0.000 OA
ATOM      7  C   LIG    1       -4.280  -0.240  -0.005  0.00  0.00    +0.000 C 
ATOM      8  C   LIG    1       -4.969   0.715  -1.001  0.00  0.00    +0.000 C 
ATOM      9  C   LIG    1       -4.916  -0.102   1.393  0.00  0.00    +0.000 C 
ATOM     10  C   LIG    1       -2.771  -0.056   0.025  0.00  0.00    +0.000 A 
ATOM     11  C   LIG    1       -1.997   1.047   0.390  0.00  0.00    +0.000 A 
ATOM     12  C   LIG    1       -0.605   0.963   0.339  0.00  0.00    +0.000 A 
ATOM     13  C   LIG    1        0.025  -0.214  -0.083  0.00  0.00    +0.000 A 
ATOM     14  C   LIG    1       -0.763  -1.322  -0.444  0.00  0.00    +0.000 A 
ATOM     15  C   LIG    1       -2.154  -1.226  -0.387  0.00  0.00    +0.000 A 
BRANCH   5  16
ATOM     16  O   LIG    1       -3.148  -3.494  -1.138  0.00  0.00    +0.000 OA
ATOM     17  H   LIG    1       -3.989  -3.937  -1.272  0.00  0.00    +0.000 HD
ENDBRANCH   5  16
ENDBRANCH   1  13
BRANCH   3  18
ATOM     18  C   LIG    1        3.757  -0.778  -0.346  0.00  0.00    +0.000 A 
ATOM     19  C   LIG    1        4.289  -0.564   0.955  0.00  0.00    +0.000 A 
ATOM     20  C   LIG    1        5.649  -0.235   1.078  0.00  0.00    +0.000 A 
ATOM     21  C   LIG    1        6.478  -0.149  -0.037  0.00  0.00    +0.000 A 
ATOM     22  F   LIG    1        7.785   0.163   0.113  0.00  0.00    +0.000 F 
ATOM     23  C   LIG    1        5.961  -0.390  -1.304  0.00  0.00    +0.000 A 
ATOM     24  C   LIG    1        4.613  -0.703  -1.455  0.00  0.00    +0.000 A 
BRANCH  19  25
ATOM     25  C   LIG    1        3.463  -0.694   2.251  0.00  0.00    +0.000 C 
ATOM     26  F   LIG    1        2.594  -1.704   2.204  0.00  0.00    +0.000 F 
ATOM     27  F   LIG    1        2.796   0.443   2.451  0.00  0.00    +0.000 F 
ATOM     28  F   LIG    1        4.237  -0.893   3.320  0.00  0.00    +0.000 F 
ENDBRANCH  19  25
ENDBRANCH   3  18
TORSDOF 4
