REMARK  Name = DB13628
REMARK                            x       y       z     vdW  Elec       q    Type
REMARK                         _______ _______ _______ _____ _____    ______ ____
ROOT
ATOM      1  C   LIG    1        3.331  -1.349   0.000  0.00  0.00    +0.059 A 
ATOM      2  C   LIG    1        4.047  -2.555   0.000  0.00  0.00    +0.018 A 
ATOM      3  C   LIG    1        5.439  -2.552   0.000  0.00  0.00    +0.046 A 
ATOM      4  C   LIG    1        6.129  -1.342   0.000  0.00  0.00    +0.117 A 
ATOM      5  C   LIG    1        5.434  -0.135   0.000  0.00  0.00    +0.046 A 
ATOM      6  C   LIG    1        4.042  -0.137   0.000  0.00  0.00    +0.018 A 
ENDROOT
BRANCH   1   7
ATOM      7  C   LIG    1        1.830  -1.388   0.000  0.00  0.00    +0.339 C 
ATOM      8  O   LIG    1        1.179  -2.438   0.000  0.00  0.00    -0.245 OA
BRANCH   7   9
ATOM      9  O   LIG    1        1.261  -0.155   0.000  0.00  0.00    -0.461 OA
BRANCH   9  11
ATOM     10  C   LIG    1       -0.498   1.494   0.000  0.00  0.00    +0.048 C 
ATOM     11  C   LIG    1       -0.152   0.002   0.000  0.00  0.00    +0.229 C 
ENDBRANCH   9  11
ENDBRANCH   7   9
ENDBRANCH   1   7
BRANCH   4  12
ATOM     12  O   LIG    1        7.498  -1.339   0.000  0.00  0.00    -0.507 OA
ATOM     13  H   LIG    1        7.874  -2.222   0.000  0.00  0.00    +0.292 HD
ENDBRANCH   4  12
TORSDOF 4
