REMARK  Name = DB13988
REMARK                            x       y       z     vdW  Elec       q    Type
REMARK                         _______ _______ _______ _____ _____    ______ ____
ROOT
ATOM      1  N   LIG    1       -0.788  -0.501  -1.120  0.00  0.00    -0.174 NA
ATOM      2  C   LIG    1       -1.100   0.411  -2.263  0.00  0.00    +0.110 C 
ATOM      3  C   LIG    1       -0.711   1.789  -1.716  0.00  0.00    +0.019 C 
ATOM      4  C   LIG    1       -0.703   1.644  -0.211  0.00  0.00    +0.022 C 
ATOM      5  C   LIG    1       -0.163   0.236   0.017  0.00  0.00    +0.078 C 
ENDROOT
BRANCH   1   6
ATOM      6  S   LIG    1       -1.963  -1.773  -0.758  0.00  0.00    +0.061 S 
ATOM      7  O   LIG    1       -2.340  -2.398  -2.032  0.00  0.00    -0.153 OA
ATOM      8  O   LIG    1       -2.987  -1.191   0.118  0.00  0.00    -0.153 OA
BRANCH   6  13
ATOM      9  C   LIG    1        0.381  -4.941   0.266  0.00  0.00    +0.005 A 
ATOM     10  C   LIG    1        0.422  -4.857   1.658  0.00  0.00    +0.045 A 
ATOM     11  C   LIG    1       -0.276  -3.844   2.317  0.00  0.00    +0.119 A 
ATOM     12  C   LIG    1       -1.016  -2.915   1.584  0.00  0.00    +0.074 A 
ATOM     13  C   LIG    1       -1.058  -2.996   0.188  0.00  0.00    +0.109 A 
ATOM     14  C   LIG    1       -0.357  -4.012  -0.469  0.00  0.00    +0.029 A 
BRANCH  11  15
ATOM     15  O   LIG    1       -0.230  -3.756   3.683  0.00  0.00    -0.507 OA
ATOM     16  H   LIG    1        0.282  -4.458   4.090  0.00  0.00    +0.292 HD
ENDBRANCH  11  15
ENDBRANCH   6  13
ENDBRANCH   1   6
BRANCH   5  17
ATOM     17  C   LIG    1        1.381   0.164   0.051  0.00  0.00    +0.002 C 
BRANCH  17  18
ATOM     18  C   LIG    1        1.913  -1.263   0.277  0.00  0.00    -0.077 C 
BRANCH  18  19
ATOM     19  N   LIG    1        3.457  -1.324   0.197  0.00  0.00    +0.380 N 
ATOM     20  H   LIG    1        3.756  -0.855  -0.648  0.00  0.00    -0.082 HD
ATOM     21  C   LIG    1        4.128  -0.612   1.402  0.00  0.00    -0.079 C 
ATOM     22  C   LIG    1        5.657  -0.734   1.266  0.00  0.00    -0.016 C 
ATOM     23  C   LIG    1        6.096  -2.210   1.211  0.00  0.00    -0.018 C 
ATOM     24  C   LIG    1        7.628  -2.347   1.174  0.00  0.00    +0.007 C 
ATOM     25  C   LIG    1        5.438  -2.860  -0.022  0.00  0.00    -0.016 C 
ATOM     26  C   LIG    1        3.902  -2.805   0.077  0.00  0.00    -0.079 C 
ENDBRANCH  18  19
ENDBRANCH  17  18
ENDBRANCH   5  17
TORSDOF 6
