REMARK  Name = DB13028
REMARK                            x       y       z     vdW  Elec       q    Type
REMARK                         _______ _______ _______ _____ _____    ______ ____
ROOT
ATOM      1  C   LIG    1        3.330  -0.920  -2.125  0.00  0.00    +0.015 C 
ATOM      2  C   LIG    1        3.152  -1.743  -0.836  0.00  0.00    +0.046 C 
ATOM      3  C   LIG    1        4.356  -1.679   0.102  0.00  0.00    +0.019 C 
ATOM      4  C   LIG    1        3.952  -1.270   1.324  0.00  0.00    +0.131 C 
ATOM      5  N   LIG    1        2.614  -1.069   1.352  0.00  0.00    -0.260 N 
ATOM      6  C   LIG    1        1.931   0.131   1.572  0.00  0.00    +0.228 C 
ATOM      7  O   LIG    1        1.814   0.873   2.545  0.00  0.00    -0.275 OA
ATOM      8  C   LIG    1        1.434   0.146   0.098  0.00  0.00    +0.125 C 
ATOM      9  C   LIG    1        1.956  -1.318   0.055  0.00  0.00    +0.104 C 
ENDROOT
BRANCH   8  10
ATOM     10  C   LIG    1       -0.098   0.340  -0.009  0.00  0.00    +0.125 C 
ATOM     11  C   LIG    1       -0.647  -0.081  -1.382  0.00  0.00    +0.038 C 
BRANCH  10  12
ATOM     12  O   LIG    1       -0.432   1.697   0.212  0.00  0.00    -0.391 OA
ATOM     13  H   LIG    1        0.009   2.233  -0.452  0.00  0.00    +0.210 HD
ENDBRANCH  10  12
ENDBRANCH   8  10
BRANCH   4  14
ATOM     14  C   LIG    1        4.799  -1.078   2.624  0.00  0.00    +0.352 C 
ATOM     15  O   LIG    1        5.889  -0.482   2.467  0.00  0.00    -0.244 OA
BRANCH  14  16
ATOM     16  O   LIG    1        4.297  -1.555   3.668  0.00  0.00    -0.476 OA
ATOM     17  H   LIG    1        3.462  -1.979   3.636  0.00  0.00    +0.295 HD
ENDBRANCH  14  16
ENDBRANCH   4  14
BRANCH   3  18
ATOM     18  S   LIG    1        6.000  -2.106  -0.446  0.00  0.00    -0.121 S 
BRANCH  18  19
ATOM     19  C   LIG    1        6.082  -3.873  -0.036  0.00  0.00    +0.082 C 
ATOM     20  C   LIG    1        5.091  -4.762  -0.805  0.00  0.00    +0.120 C 
ATOM     21  N   LIG    1        5.805  -6.017  -0.747  0.00  0.00    -0.218 NA
ATOM     22  N   LIG    1        7.086  -5.870  -0.460  0.00  0.00    -0.218 NA
ATOM     23  C   LIG    1        7.621  -7.140  -0.477  0.00  0.00    +0.174 C 
ATOM     24  N   LIG    1        6.724  -8.072  -0.756  0.00  0.00    -0.279 NA
ATOM     25  H   LIG    1        6.627  -8.730   0.017  0.00  0.00    +0.125 HD
ATOM     26  C   LIG    1        5.616  -7.371  -0.926  0.00  0.00    +0.174 C 
ATOM     27  C   LIG    1        7.468  -4.489  -0.276  0.00  0.00    +0.120 C 
ENDBRANCH  18  19
ENDBRANCH   3  18
TORSDOF 6
