REMARK  Name = DB13158
REMARK                            x       y       z     vdW  Elec       q    Type
REMARK                         _______ _______ _______ _____ _____    ______ ____
ROOT
ATOM      1  C   LIG    1        1.211   1.617  -2.234  0.00  0.00    +0.011 C 
ATOM      2  C   LIG    1        2.119   0.800  -1.284  0.00  0.00    +0.026 C 
ATOM      3  C   LIG    1        1.486   0.029  -0.051  0.00  0.00    +0.133 C 
ATOM      4  C   LIG    1        1.944   0.870   1.207  0.00  0.00    +0.014 C 
ATOM      5  C   LIG    1        3.386   1.225   0.766  0.00  0.00    +0.005 C 
ATOM      6  C   LIG    1        4.145   2.105   1.796  0.00  0.00    +0.039 C 
ATOM      7  C   LIG    1        4.219   1.396   3.203  0.00  0.00    +0.184 C 
ATOM      8  F   LIG    1        4.931   0.272   3.045  0.00  0.00    -0.232 F 
ATOM      9  C   LIG    1        4.989   2.280   4.275  0.00  0.00    +0.049 C 
ATOM     10  C   LIG    1        6.364   2.687   3.660  0.00  0.00    -0.053 C 
ATOM     11  C   LIG    1        7.555   2.404   4.240  0.00  0.00    +0.051 C 
ATOM     12  C   LIG    1        7.734   1.691   5.503  0.00  0.00    +0.179 C 
ATOM     13  O   LIG    1        8.835   1.466   6.001  0.00  0.00    -0.288 OA
ATOM     14  C   LIG    1        6.479   1.268   6.115  0.00  0.00    +0.047 C 
ATOM     15  C   LIG    1        6.283   3.402   2.312  0.00  0.00    +0.032 C 
ATOM     16  C   LIG    1        5.263   1.517   5.588  0.00  0.00    -0.009 C 
ATOM     17  C   LIG    1        4.229   3.577   4.673  0.00  0.00    +0.024 C 
ATOM     18  C   LIG    1        2.811   0.871   3.639  0.00  0.00    +0.172 C 
ATOM     19  O   LIG    1        2.311   1.068   4.745  0.00  0.00    -0.294 OA
ATOM     20  C   LIG    1        5.557   2.494   1.307  0.00  0.00    +0.012 C 
ATOM     21  C   LIG    1        2.042   0.086   2.552  0.00  0.00    +0.088 C 
ATOM     22  C   LIG    1        1.071   2.156   1.437  0.00  0.00    +0.015 C 
ATOM     23  C   LIG    1        3.255   1.676  -0.693  0.00  0.00    +0.011 C 
ENDROOT
BRANCH   3  24
ATOM     24  O   LIG    1        2.055  -1.281  -0.024  0.00  0.00    -0.380 OA
ATOM     25  H   LIG    1        3.011  -1.197   0.004  0.00  0.00    +0.211 HD
ENDBRANCH   3  24
BRANCH   3  26
ATOM     26  C   LIG    1       -0.070  -0.189  -0.099  0.00  0.00    +0.180 C 
ATOM     27  O   LIG    1       -0.834   0.734  -0.390  0.00  0.00    -0.293 OA
BRANCH  26  28
ATOM     28  C   LIG    1       -0.649  -1.577   0.245  0.00  0.00    +0.186 C 
ATOM     29 CL   LIG    1       -2.438  -1.603   0.228  0.00  0.00    -0.117 Cl
ENDBRANCH  26  28
ENDBRANCH   3  26
TORSDOF 3
