REMARK  Name = DB13067
REMARK                            x       y       z     vdW  Elec       q    Type
REMARK                         _______ _______ _______ _____ _____    ______ ____
ROOT
ATOM      1  C   LIG    1        0.657  -0.138   0.831  0.00  0.00    +0.164 C 
ATOM      2  N   LIG    1        0.599   1.303   0.515  0.00  0.00    -0.286 N 
ATOM      3  C   LIG    1        0.401   2.244   1.473  0.00  0.00    +0.237 C 
ATOM      4  O   LIG    1        0.136   1.960   2.644  0.00  0.00    -0.274 OA
ATOM      5  C   LIG    1        0.984   1.587  -0.875  0.00  0.00    +0.140 C 
ATOM      6  C   LIG    1        1.283   0.214  -1.485  0.00  0.00    +0.134 C 
ATOM      7  C   LIG    1        1.519  -0.713  -0.300  0.00  0.00    +0.065 C 
ENDROOT
BRANCH   3   8
ATOM      8  C   LIG    1        0.574   3.748   1.129  0.00  0.00    +0.162 C 
ATOM      9  N   LIG    1        1.677   4.349   1.906  0.00  0.00    -0.288 N 
ATOM     10  C   LIG    1        2.956   3.910   1.829  0.00  0.00    +0.237 C 
ATOM     11  O   LIG    1        3.375   3.193   0.919  0.00  0.00    -0.274 OA
ATOM     12  C   LIG    1        1.188   5.417   2.774  0.00  0.00    +0.109 C 
ATOM     13  C   LIG    1       -0.098   5.876   2.104  0.00  0.00    +0.021 C 
ATOM     14  C   LIG    1       -0.661   4.585   1.532  0.00  0.00    +0.033 C 
BRANCH  10  15
ATOM     15  C   LIG    1        3.913   4.287   2.986  0.00  0.00    +0.163 C 
BRANCH  15  16
ATOM     16  N   LIG    1        4.637   5.542   2.752  0.00  0.00    -0.304 N 
ATOM     17  H   LIG    1        4.443   6.268   3.426  0.00  0.00    +0.149 HD
ATOM     18  C   LIG    1        5.497   5.822   1.755  0.00  0.00    +0.211 C 
ATOM     19  C   LIG    1        6.091   7.227   1.749  0.00  0.00    +0.109 C 
ATOM     20  O   LIG    1        5.819   5.025   0.875  0.00  0.00    -0.276 OA
ENDBRANCH  15  16
BRANCH  15  21
ATOM     21  C   LIG    1        4.888   3.138   3.364  0.00  0.00    +0.067 C 
BRANCH  21  22
ATOM     22  C   LIG    1        4.238   1.770   3.541  0.00  0.00    -0.045 A 
ATOM     23  C   LIG    1        4.574   0.706   2.676  0.00  0.00    +0.007 A 
ATOM     24  C   LIG    1        3.937  -0.542   2.806  0.00  0.00    +0.045 A 
ATOM     25  C   LIG    1        2.958  -0.734   3.800  0.00  0.00    +0.117 A 
ATOM     26  C   LIG    1        2.624   0.322   4.670  0.00  0.00    +0.045 A 
ATOM     27  C   LIG    1        3.266   1.570   4.544  0.00  0.00    +0.007 A 
BRANCH  25  28
ATOM     28  O   LIG    1        2.327  -1.938   3.913  0.00  0.00    -0.507 OA
ATOM     29  H   LIG    1        2.658  -2.592   3.292  0.00  0.00    +0.292 HD
ENDBRANCH  25  28
ENDBRANCH  21  22
ENDBRANCH  15  21
ENDBRANCH  10  15
ENDBRANCH   3   8
BRANCH   1  32
ATOM     30  N   LIG    1       -0.778  -2.001   1.524  0.00  0.00    -0.305 N 
ATOM     31  H   LIG    1        0.075  -2.391   1.898  0.00  0.00    +0.149 HD
ATOM     32  C   LIG    1       -0.736  -0.803   0.913  0.00  0.00    +0.234 C 
ATOM     33  O   LIG    1       -1.736  -0.255   0.442  0.00  0.00    -0.274 OA
BRANCH  30  34
ATOM     34  C   LIG    1       -1.977  -2.832   1.631  0.00  0.00    +0.200 C 
BRANCH  34  37
ATOM     35  N   LIG    1       -3.580  -3.295  -0.156  0.00  0.00    -0.303 N 
ATOM     36  H   LIG    1       -4.241  -2.851   0.466  0.00  0.00    +0.149 HD
ATOM     37  C   LIG    1       -2.305  -3.421   0.254  0.00  0.00    +0.231 C 
ATOM     38  O   LIG    1       -1.422  -3.962  -0.413  0.00  0.00    -0.274 OA
BRANCH  35  40
ATOM     39  C   LIG    1       -4.061  -5.177  -1.699  0.00  0.00    +0.038 C 
ATOM     40  C   LIG    1       -4.119  -3.650  -1.477  0.00  0.00    +0.156 C 
BRANCH  40  41
ATOM     41  C   LIG    1       -3.499  -2.849  -2.646  0.00  0.00    +0.233 C 
ATOM     42  N   LIG    1       -3.030  -1.620  -2.361  0.00  0.00    -0.305 N 
ATOM     43  H   LIG    1       -3.097  -1.280  -1.412  0.00  0.00    +0.149 HD
ATOM     44  O   LIG    1       -3.465  -3.348  -3.771  0.00  0.00    -0.274 OA
BRANCH  42  45
ATOM     45  C   LIG    1       -2.419  -0.713  -3.333  0.00  0.00    +0.199 C 
BRANCH  45  46
ATOM     46  C   LIG    1       -3.484  -0.075  -4.241  0.00  0.00    +0.228 C 
ATOM     47  N   LIG    1       -3.172   0.065  -5.532  0.00  0.00    -0.328 N 
ATOM     48  H   LIG    1       -3.829   0.497  -6.165  0.00  0.00    +0.145 HD
ATOM     49  H   LIG    1       -2.287  -0.267  -5.884  0.00  0.00    +0.145 HD
ATOM     50  O   LIG    1       -4.550   0.338  -3.784  0.00  0.00    -0.274 OA
ENDBRANCH  45  46
ENDBRANCH  42  45
ENDBRANCH  40  41
ENDBRANCH  35  40
ENDBRANCH  34  37
ENDBRANCH  30  34
ENDBRANCH   1  32
BRANCH   6  51
ATOM     51  O   LIG    1        2.313   0.188  -2.450  0.00  0.00    -0.390 OA
ATOM     52  H   LIG    1        3.154   0.300  -2.001  0.00  0.00    +0.210 HD
ENDBRANCH   6  51
TORSDOF 14
