REMARK  Name = DB13139
REMARK                            x       y       z     vdW  Elec       q    Type
REMARK                         _______ _______ _______ _____ _____    ______ ____
ROOT
ATOM      1  C   LIG    1       -0.777  -1.309   0.155  0.00  0.00    +0.015 A 
ATOM      2  C   LIG    1       -0.065  -0.104   0.077  0.00  0.00    -0.017 A 
ATOM      3  C   LIG    1       -0.774   1.099   0.004  0.00  0.00    +0.010 A 
ATOM      4  C   LIG    1       -2.168   1.101   0.017  0.00  0.00    +0.046 A 
ATOM      5  C   LIG    1       -2.872  -0.101   0.098  0.00  0.00    +0.122 A 
ATOM      6  C   LIG    1       -2.176  -1.318   0.166  0.00  0.00    +0.020 A 
ENDROOT
BRANCH   5   7
ATOM      7  O   LIG    1       -4.243  -0.063   0.108  0.00  0.00    -0.506 OA
ATOM      8  H   LIG    1       -4.592   0.830   0.064  0.00  0.00    +0.292 HD
ENDBRANCH   5   7
BRANCH   2   9
ATOM      9  C   LIG    1        1.467  -0.077   0.054  0.00  0.00    +0.158 C 
BRANCH   9  10
ATOM     10  O   LIG    1        2.074  -1.167   0.729  0.00  0.00    -0.386 OA
ATOM     11  H   LIG    1        1.832  -1.121   1.657  0.00  0.00    +0.210 HD
ENDBRANCH   9  10
BRANCH   9  12
ATOM     12  C   LIG    1        2.059   0.046  -1.371  0.00  0.00    +0.117 C 
BRANCH  12  13
ATOM     13  N   LIG    1        1.628  -1.053  -2.240  0.00  0.00    -0.309 NA
ATOM     14  H   LIG    1        1.811  -1.938  -1.789  0.00  0.00    +0.123 HD
BRANCH  13  15
ATOM     15  C   LIG    1        2.135  -1.073  -3.618  0.00  0.00    +0.011 C 
ATOM     16  C   LIG    1        1.682   0.193  -4.382  0.00  0.00    +0.027 C 
ATOM     17  C   LIG    1        3.676  -1.206  -3.631  0.00  0.00    +0.027 C 
ATOM     18  C   LIG    1        1.505  -2.321  -4.273  0.00  0.00    +0.027 C 
ENDBRANCH  13  15
ENDBRANCH  12  13
ENDBRANCH   9  12
ENDBRANCH   2   9
BRANCH   6  19
ATOM     19  C   LIG    1       -2.912  -2.651   0.248  0.00  0.00    +0.194 C 
BRANCH  19  20
ATOM     20  O   LIG    1       -3.350  -2.946   1.558  0.00  0.00    -0.390 OA
ATOM     21  H   LIG    1       -3.832  -3.776   1.539  0.00  0.00    +0.210 HD
ENDBRANCH  19  20
ENDBRANCH   6  19
TORSDOF 8
