REMARK  Name = DB13273
REMARK                            x       y       z     vdW  Elec       q    Type
REMARK                         _______ _______ _______ _____ _____    ______ ____
ROOT
ATOM      1  C   LIG    1       -0.161   0.199   0.313  0.00  0.00    +0.080 A 
ATOM      2  C   LIG    1       -0.888  -1.000   0.380  0.00  0.00    +0.043 A 
ATOM      3  C   LIG    1       -2.277  -1.008   0.264  0.00  0.00    +0.089 A 
ATOM      4  C   LIG    1       -2.959   0.192   0.078  0.00  0.00    +0.030 A 
ATOM      5  C   LIG    1       -2.255   1.391   0.014  0.00  0.00    +0.048 A 
ATOM      6  C   LIG    1       -0.853   1.418   0.131  0.00  0.00    +0.132 A 
ENDROOT
BRANCH   1   7
ATOM      7  C   LIG    1        1.344   0.163   0.464  0.00  0.00    +0.248 C 
ATOM      8  O   LIG    1        1.942   1.036   1.096  0.00  0.00    -0.270 OA
ATOM      9  N   LIG    1        1.964  -0.879  -0.123  0.00  0.00    -0.310 N 
ATOM     10  H   LIG    1        1.407  -1.534  -0.651  0.00  0.00    +0.149 HD
BRANCH   9  11
ATOM     11  C   LIG    1        3.400  -1.156  -0.056  0.00  0.00    +0.123 C 
BRANCH  11  12
ATOM     12  C   LIG    1        3.900  -1.666   1.321  0.00  0.00    +0.074 C 
ATOM     13  C   LIG    1        2.980  -2.706   1.991  0.00  0.00    +0.022 C 
ATOM     14  C   LIG    1        3.911  -3.496   2.911  0.00  0.00    +0.017 C 
ATOM     15  C   LIG    1        5.270  -2.827   2.719  0.00  0.00    +0.085 C 
ATOM     16  N   LIG    1        5.242  -2.250   1.380  0.00  0.00    -0.298 NA
BRANCH  16  17
ATOM     17  C   LIG    1        6.345  -1.306   1.175  0.00  0.00    +0.081 C 
ATOM     18  C   LIG    1        6.781  -1.262  -0.299  0.00  0.00    +0.020 C 
ENDBRANCH  16  17
ENDBRANCH  11  12
ENDBRANCH   9  11
ENDBRANCH   1   7
BRANCH   3  19
ATOM     19  S   LIG    1       -3.177  -2.553   0.337  0.00  0.00    -0.003 S 
ATOM     20  O   LIG    1       -4.545  -2.248   0.772  0.00  0.00    -0.169 OA
ATOM     21  O   LIG    1       -2.356  -3.506   1.094  0.00  0.00    -0.169 OA
BRANCH  19  22
ATOM     22  C   LIG    1       -3.226  -3.102  -1.472  0.00  0.00    +0.168 C 
ATOM     23  C   LIG    1       -3.972  -4.436  -1.597  0.00  0.00    +0.028 C 
ENDBRANCH  19  22
ENDBRANCH   3  19
BRANCH   6  24
ATOM     24  O   LIG    1       -0.120   2.593   0.057  0.00  0.00    -0.494 OA
ATOM     25  C   LIG    1       -0.790   3.839  -0.107  0.00  0.00    +0.277 C 
ENDBRANCH   6  24
TORSDOF 7
