REMARK  Name = DB13070
REMARK                            x       y       z     vdW  Elec       q    Type
REMARK                         _______ _______ _______ _____ _____    ______ ____
ROOT
ATOM      1  C   LIG    1       -0.126   0.136  -0.014  0.00  0.00    +0.152 A 
ATOM      2  N   LIG    1       -0.891   1.212  -0.014  0.00  0.00    -0.161 NA
ATOM      3  N   LIG    1       -2.157   0.791   0.012  0.00  0.00    -0.230 N 
ATOM      4  C   LIG    1       -2.244  -0.583   0.004  0.00  0.00    +0.079 A 
ATOM      5  C   LIG    1       -0.924  -1.043   0.004  0.00  0.00    +0.011 A 
ENDROOT
BRANCH   3   6
ATOM      6  C   LIG    1       -3.202   1.740  -0.028  0.00  0.00    +0.084 A 
ATOM      7  C   LIG    1       -3.363   2.707   0.982  0.00  0.00    +0.068 A 
ATOM      8 CL   LIG    1       -2.314   2.785   2.357  0.00  0.00    -0.081 Cl
ATOM      9  C   LIG    1       -4.417   3.620   0.899  0.00  0.00    +0.042 A 
ATOM     10  C   LIG    1       -5.309   3.576  -0.172  0.00  0.00    +0.042 A 
ATOM     11 CL   LIG    1       -6.610   4.707  -0.259  0.00  0.00    -0.083 Cl
ATOM     12  C   LIG    1       -5.153   2.614  -1.169  0.00  0.00    +0.022 A 
ATOM     13  C   LIG    1       -4.105   1.699  -1.098  0.00  0.00    +0.031 A 
ENDBRANCH   3   6
BRANCH   4  14
ATOM     14  C   LIG    1       -3.533  -1.337   0.014  0.00  0.00    +0.001 A 
ATOM     15  C   LIG    1       -3.796  -2.284  -0.980  0.00  0.00    +0.011 A 
ATOM     16  C   LIG    1       -5.001  -2.980  -0.978  0.00  0.00    +0.016 A 
ATOM     17  C   LIG    1       -5.942  -2.729   0.019  0.00  0.00    +0.018 A 
ATOM     18 BR   LIG    1       -7.592  -3.679   0.019  0.00  0.00    -0.050 Br
ATOM     19  C   LIG    1       -5.686  -1.789   1.014  0.00  0.00    +0.016 A 
ATOM     20  C   LIG    1       -4.481  -1.093   1.013  0.00  0.00    +0.011 A 
ENDBRANCH   4  14
BRANCH   1  21
ATOM     21  C   LIG    1        1.330   0.187   0.005  0.00  0.00    +0.278 C 
ATOM     22  O   LIG    1        2.011  -0.829   0.165  0.00  0.00    -0.267 OA
ATOM     23  N   LIG    1        1.858   1.418  -0.183  0.00  0.00    -0.243 N 
ATOM     24  H   LIG    1        1.310   2.265  -0.220  0.00  0.00    +0.170 HD
BRANCH  23  25
ATOM     25  N   LIG    1        3.241   1.633  -0.088  0.00  0.00    -0.227 NA
ATOM     26  C   LIG    1        3.584   2.301   1.174  0.00  0.00    +0.105 C 
ATOM     27  C   LIG    1        5.114   2.453   1.315  0.00  0.00    +0.017 C 
ATOM     28  C   LIG    1        5.734   3.176   0.108  0.00  0.00    +0.003 C 
ATOM     29  C   LIG    1        5.263   2.530  -1.206  0.00  0.00    +0.017 C 
ATOM     30  C   LIG    1        3.728   2.377  -1.255  0.00  0.00    +0.105 C 
ENDBRANCH  23  25
ENDBRANCH   1  21
BRANCH   5  31
ATOM     31  C   LIG    1       -0.483  -2.501   0.034  0.00  0.00    +0.036 C 
ATOM     32  C   LIG    1       -0.234  -2.996   1.465  0.00  0.00    +0.009 C 
ENDBRANCH   5  31
TORSDOF 5
