REMARK  Name = DB13056
REMARK                            x       y       z     vdW  Elec       q    Type
REMARK                         _______ _______ _______ _____ _____    ______ ____
ROOT
ATOM      1  C   LIG    1        1.520  -0.046  -0.020  0.00  0.00    +0.168 A 
ATOM      2  N   LIG    1        2.168  -0.985   0.726  0.00  0.00    -0.195 NA
ATOM      3  C   LIG    1        3.522  -0.900   0.702  0.00  0.00    +0.217 A 
ATOM      4  N   LIG    1        4.240   0.028   0.018  0.00  0.00    -0.181 NA
ATOM      5  C   LIG    1        3.492   0.919  -0.682  0.00  0.00    +0.217 A 
ATOM      6  N   LIG    1        2.136   0.937  -0.737  0.00  0.00    -0.195 NA
ENDROOT
BRANCH   1  11
ATOM      7  C   LIG    1       -2.789   0.014   0.016  0.00  0.00    +0.021 A 
ATOM      8  C   LIG    1       -2.059   1.179   0.233  0.00  0.00    +0.042 A 
ATOM      9 CL   LIG    1       -2.877   2.669   0.530  0.00  0.00    -0.084 Cl
ATOM     10  C   LIG    1       -0.665   1.139   0.210  0.00  0.00    +0.033 A 
ATOM     11  C   LIG    1        0.027  -0.060  -0.023  0.00  0.00    +0.039 A 
ATOM     12  C   LIG    1       -0.729  -1.230  -0.254  0.00  0.00    +0.052 A 
ATOM     13 CL   LIG    1        0.013  -2.752  -0.619  0.00  0.00    -0.083 Cl
ATOM     14  C   LIG    1       -2.125  -1.184  -0.229  0.00  0.00    +0.022 A 
ENDBRANCH   1  11
BRANCH   3  15
ATOM     15  N   LIG    1        4.233  -1.839   1.439  0.00  0.00    -0.327 N 
ATOM     16  H   LIG    1        5.242  -1.804   1.442  0.00  0.00    +0.145 HD
ATOM     17  H   LIG    1        3.729  -2.544   1.957  0.00  0.00    +0.145 HD
ENDBRANCH   3  15
BRANCH   5  18
ATOM     18  N   LIG    1        4.173   1.895  -1.400  0.00  0.00    -0.327 N 
ATOM     19  H   LIG    1        3.648   2.573  -1.934  0.00  0.00    +0.145 HD
ATOM     20  H   LIG    1        5.182   1.908  -1.381  0.00  0.00    +0.145 HD
ENDBRANCH   5  18
TORSDOF 3
