REMARK  Name = DB13038
REMARK                            x       y       z     vdW  Elec       q    Type
REMARK                         _______ _______ _______ _____ _____    ______ ____
ROOT
ATOM      1  C   LIG    1        0.969   0.534  -0.377  0.00  0.00    +0.251 C 
ENDROOT
BRANCH   1   2
ATOM      2  O   LIG    1        1.600  -0.747  -0.376  0.00  0.00    -0.454 OA
BRANCH   2   3
ATOM      3  C   LIG    1        2.076  -1.312  -1.510  0.00  0.00    +0.308 C 
ATOM      4  O   LIG    1        1.994  -0.833  -2.644  0.00  0.00    -0.251 OA
BRANCH   3   5
ATOM      5  C   LIG    1        2.766  -2.654  -1.227  0.00  0.00    +0.120 C 
BRANCH   5   6
ATOM      6  C   LIG    1        3.579  -3.257  -2.395  0.00  0.00    +0.011 C 
BRANCH   6   7
ATOM      7  C   LIG    1        4.833  -2.445  -2.789  0.00  0.00    +0.001 C 
BRANCH   7   8
ATOM      8  C   LIG    1        5.691  -3.100  -3.889  0.00  0.00    +0.000 C 
BRANCH   8   9
ATOM      9  C   LIG    1        6.463  -4.350  -3.424  0.00  0.00    +0.000 C 
BRANCH   9  10
ATOM     10  C   LIG    1        7.352  -4.956  -4.524  0.00  0.00    +0.004 C 
BRANCH  10  11
ATOM     11  C   LIG    1        8.178  -6.155  -4.026  0.00  0.00    +0.027 C 
BRANCH  11  12
ATOM     12  C   LIG    1        9.041  -6.777  -5.113  0.00  0.00    -0.031 C 
ATOM     13  C   LIG    1        9.104  -8.073  -5.475  0.00  0.00    -0.031 C 
BRANCH  13  14
ATOM     14  C   LIG    1        8.349  -9.246  -4.869  0.00  0.00    +0.027 C 
BRANCH  14  15
ATOM     15  C   LIG    1        7.290  -9.838  -5.818  0.00  0.00    +0.004 C 
BRANCH  15  16
ATOM     16  C   LIG    1        6.410 -10.935  -5.186  0.00  0.00    +0.000 C 
BRANCH  16  17
ATOM     17  C   LIG    1        7.180 -12.201  -4.756  0.00  0.00    +0.000 C 
BRANCH  17  18
ATOM     18  C   LIG    1        6.297 -13.299  -4.124  0.00  0.00    -0.000 C 
BRANCH  18  19
ATOM     19  C   LIG    1        5.210 -13.903  -5.038  0.00  0.00    -0.000 C 
BRANCH  19  20
ATOM     20  C   LIG    1        5.756 -14.606  -6.296  0.00  0.00    -0.003 C 
ATOM     21  C   LIG    1        4.656 -15.276  -7.130  0.00  0.00    +0.004 C 
ENDBRANCH  19  20
ENDBRANCH  18  19
ENDBRANCH  17  18
ENDBRANCH  16  17
ENDBRANCH  15  16
ENDBRANCH  14  15
ENDBRANCH  13  14
ENDBRANCH  11  12
ENDBRANCH  10  11
ENDBRANCH   9  10
ENDBRANCH   8   9
ENDBRANCH   7   8
ENDBRANCH   6   7
ENDBRANCH   5   6
ENDBRANCH   3   5
ENDBRANCH   2   3
ENDBRANCH   1   2
BRANCH   1  22
ATOM     22  C   LIG    1       -0.481   0.423  -0.898  0.00  0.00    +0.280 C 
BRANCH  22  23
ATOM     23  O   LIG    1       -1.073   1.715  -0.976  0.00  0.00    -0.461 OA
BRANCH  23  24
ATOM     24  C   LIG    1       -2.359   1.865  -1.350  0.00  0.00    +0.307 C 
ATOM     25  O   LIG    1       -3.132   0.956  -1.662  0.00  0.00    -0.251 OA
BRANCH  24  26
ATOM     26  C   LIG    1       -2.783   3.339  -1.329  0.00  0.00    +0.120 C 
BRANCH  26  27
ATOM     27  C   LIG    1       -4.290   3.587  -1.549  0.00  0.00    +0.011 C 
BRANCH  27  28
ATOM     28  C   LIG    1       -4.654   5.077  -1.428  0.00  0.00    +0.001 C 
BRANCH  28  29
ATOM     29  C   LIG    1       -6.163   5.351  -1.563  0.00  0.00    +0.000 C 
BRANCH  29  30
ATOM     30  C   LIG    1       -6.517   6.833  -1.331  0.00  0.00    +0.000 C 
BRANCH  30  31
ATOM     31  C   LIG    1       -8.031   7.127  -1.299  0.00  0.00    +0.004 C 
BRANCH  31  32
ATOM     32  C   LIG    1       -8.767   6.939  -2.640  0.00  0.00    +0.027 C 
BRANCH  32  33
ATOM     33  C   LIG    1       -8.335   7.912  -3.727  0.00  0.00    -0.031 C 
ATOM     34  C   LIG    1       -7.925   7.622  -4.976  0.00  0.00    -0.031 C 
BRANCH  34  35
ATOM     35  C   LIG    1       -7.785   6.248  -5.613  0.00  0.00    +0.027 C 
BRANCH  35  36
ATOM     36  C   LIG    1       -8.884   5.965  -6.651  0.00  0.00    +0.004 C 
BRANCH  36  37
ATOM     37  C   LIG    1       -8.728   4.602  -7.347  0.00  0.00    +0.000 C 
BRANCH  37  38
ATOM     38  C   LIG    1       -9.850   4.321  -8.364  0.00  0.00    +0.000 C 
BRANCH  38  39
ATOM     39  C   LIG    1       -9.689   2.971  -9.086  0.00  0.00    -0.000 C 
BRANCH  39  40
ATOM     40  C   LIG    1      -10.829   2.686 -10.081  0.00  0.00    -0.000 C 
BRANCH  40  41
ATOM     41  C   LIG    1      -10.668   1.343 -10.814  0.00  0.00    -0.003 C 
ATOM     42  C   LIG    1      -11.815   1.055 -11.792  0.00  0.00    +0.004 C 
ENDBRANCH  40  41
ENDBRANCH  39  40
ENDBRANCH  38  39
ENDBRANCH  37  38
ENDBRANCH  36  37
ENDBRANCH  35  36
ENDBRANCH  34  35
ENDBRANCH  32  33
ENDBRANCH  31  32
ENDBRANCH  30  31
ENDBRANCH  29  30
ENDBRANCH  28  29
ENDBRANCH  27  28
ENDBRANCH  26  27
ENDBRANCH  24  26
ENDBRANCH  23  24
ENDBRANCH  22  23
ENDBRANCH   1  22
BRANCH   1  43
ATOM     43  C   LIG    1        1.023   1.076   1.063  0.00  0.00    +0.280 C 
BRANCH  43  44
ATOM     44  O   LIG    1        2.368   1.390   1.408  0.00  0.00    -0.461 OA
BRANCH  44  45
ATOM     45  C   LIG    1        2.664   1.900   2.620  0.00  0.00    +0.307 C 
ATOM     46  O   LIG    1        1.861   2.167   3.515  0.00  0.00    -0.251 OA
BRANCH  45  47
ATOM     47  C   LIG    1        4.167   2.129   2.805  0.00  0.00    +0.120 C 
BRANCH  47  48
ATOM     48  C   LIG    1        4.933   0.873   3.275  0.00  0.00    +0.011 C 
BRANCH  48  49
ATOM     49  C   LIG    1        4.577   0.405   4.702  0.00  0.00    +0.001 C 
BRANCH  49  50
ATOM     50  C   LIG    1        5.426  -0.788   5.176  0.00  0.00    +0.000 C 
BRANCH  50  51
ATOM     51  C   LIG    1        5.083  -1.231   6.610  0.00  0.00    +0.000 C 
BRANCH  51  52
ATOM     52  C   LIG    1        5.941  -2.414   7.102  0.00  0.00    +0.004 C 
BRANCH  52  53
ATOM     53  C   LIG    1        5.568  -2.922   8.508  0.00  0.00    +0.027 C 
BRANCH  53  54
ATOM     54  C   LIG    1        5.818  -1.919   9.626  0.00  0.00    -0.031 C 
ATOM     55  C   LIG    1        6.639  -2.045  10.688  0.00  0.00    -0.031 C 
BRANCH  55  56
ATOM     56  C   LIG    1        7.513  -3.232  11.060  0.00  0.00    +0.027 C 
BRANCH  56  57
ATOM     57  C   LIG    1        9.014  -2.966  10.851  0.00  0.00    +0.004 C 
BRANCH  57  58
ATOM     58  C   LIG    1        9.895  -4.154  11.278  0.00  0.00    +0.000 C 
BRANCH  58  59
ATOM     59  C   LIG    1       11.398  -3.898  11.059  0.00  0.00    +0.000 C 
BRANCH  59  60
ATOM     60  C   LIG    1       12.302  -5.099  11.402  0.00  0.00    -0.000 C 
BRANCH  60  61
ATOM     61  C   LIG    1       12.340  -5.457  12.900  0.00  0.00    -0.000 C 
BRANCH  61  62
ATOM     62  C   LIG    1       13.300  -6.618  13.214  0.00  0.00    -0.003 C 
ATOM     63  C   LIG    1       13.343  -6.971  14.707  0.00  0.00    +0.004 C 
ENDBRANCH  61  62
ENDBRANCH  60  61
ENDBRANCH  59  60
ENDBRANCH  58  59
ENDBRANCH  57  58
ENDBRANCH  56  57
ENDBRANCH  55  56
ENDBRANCH  53  54
ENDBRANCH  52  53
ENDBRANCH  51  52
ENDBRANCH  50  51
ENDBRANCH  49  50
ENDBRANCH  48  49
ENDBRANCH  47  48
ENDBRANCH  45  47
ENDBRANCH  44  45
ENDBRANCH  43  44
ENDBRANCH   1  43
TORSDOF 53
