REMARK  Name = DB13064
REMARK                            x       y       z     vdW  Elec       q    Type
REMARK                         _______ _______ _______ _____ _____    ______ ____
ROOT
ATOM      1  C   LIG    1       -1.965  -3.765  -0.403  0.00  0.00    +0.005 C 
ATOM      2  C   LIG    1       -2.866  -2.609   0.047  0.00  0.00    +0.035 C 
ATOM      3  C   LIG    1       -2.175  -1.245  -0.021  0.00  0.00    -0.042 A 
ATOM      4  C   LIG    1       -0.761  -1.113   0.010  0.00  0.00    -0.023 A 
ATOM      5  C   LIG    1       -0.194   0.190   0.032  0.00  0.00    +0.033 A 
ATOM      6  C   LIG    1       -1.033   1.313   0.016  0.00  0.00    +0.023 A 
ATOM      7  C   LIG    1       -2.411   1.168  -0.041  0.00  0.00    +0.002 A 
ATOM      8  C   LIG    1        0.116  -2.387  -0.051  0.00  0.00    +0.037 C 
ATOM      9  C   LIG    1       -2.971  -0.099  -0.061  0.00  0.00    +0.004 A 
ATOM     10  C   LIG    1       -0.621  -3.683   0.323  0.00  0.00    +0.005 C 
ENDROOT
BRANCH   5  11
ATOM     11  N   LIG    1        1.243   0.320   0.063  0.00  0.00    -0.310 N 
ATOM     12  H   LIG    1        1.743  -0.556   0.110  0.00  0.00    +0.149 HD
BRANCH  11  13
ATOM     13  C   LIG    1        2.063   1.381   0.016  0.00  0.00    +0.190 C 
ATOM     14  N   LIG    1        3.389   1.256   0.068  0.00  0.00    -0.278 NA
ATOM     15  H   LIG    1        3.875   0.372   0.115  0.00  0.00    +0.125 HD
ATOM     16  C   LIG    1        4.066   2.534   0.225  0.00  0.00    +0.099 C 
ATOM     17  C   LIG    1        3.003   3.483  -0.299  0.00  0.00    +0.099 C 
ATOM     18  N   LIG    1        1.801   2.688  -0.091  0.00  0.00    -0.278 NA
ATOM     19  H   LIG    1        0.933   3.109   0.205  0.00  0.00    +0.125 HD
ENDBRANCH  11  13
ENDBRANCH   5  11
TORSDOF 2
