REMARK  Name = DB13167
REMARK                            x       y       z     vdW  Elec       q    Type
REMARK                         _______ _______ _______ _____ _____    ______ ____
ROOT
ATOM      1  C   LIG    1        0.034  -0.207   0.012  0.00  0.00    +0.139 A 
ATOM      2  C   LIG    1       -0.663   1.008  -0.055  0.00  0.00    +0.083 A 
ATOM      3 CL   LIG    1        0.191   2.507  -0.169  0.00  0.00    -0.080 Cl
ATOM      4  C   LIG    1       -2.058   1.029  -0.029  0.00  0.00    +0.027 A 
ATOM      5  C   LIG    1       -2.784  -0.162   0.061  0.00  0.00    -0.035 A 
ATOM      6  C   LIG    1       -2.097  -1.377   0.135  0.00  0.00    +0.008 A 
ATOM      7  C   LIG    1       -0.703  -1.401   0.108  0.00  0.00    +0.047 A 
ENDROOT
BRANCH   1   8
ATOM      8  O   LIG    1        1.416  -0.154  -0.019  0.00  0.00    -0.487 OA
BRANCH   8   9
ATOM      9  C   LIG    1        2.167  -1.362   0.049  0.00  0.00    +0.256 C 
BRANCH   9  11
ATOM     10  C   LIG    1        4.525  -1.574  -0.855  0.00  0.00    +0.007 C 
ATOM     11  C   LIG    1        3.648  -1.047   0.014  0.00  0.00    +0.006 C 
ENDBRANCH   9  11
ENDBRANCH   8   9
ENDBRANCH   1   8
BRANCH   5  12
ATOM     12  C   LIG    1       -4.309  -0.134   0.108  0.00  0.00    +0.155 C 
BRANCH  12  13
ATOM     13  C   LIG    1       -4.873  -0.050   1.534  0.00  0.00    +0.309 C 
ATOM     14  O   LIG    1       -4.186   0.019   2.553  0.00  0.00    -0.251 OA
BRANCH  13  15
ATOM     15  O   LIG    1       -6.236  -0.058   1.519  0.00  0.00    -0.480 OA
ATOM     16  H   LIG    1       -6.610  -0.004   2.401  0.00  0.00    +0.295 HD
ENDBRANCH  13  15
ENDBRANCH  12  13
ENDBRANCH   5  12
TORSDOF 6
