REMARK  Name = DB13760
REMARK                            x       y       z     vdW  Elec       q    Type
REMARK                         _______ _______ _______ _____ _____    ______ ____
ROOT
ATOM      1  C   LIG    1        2.016  -2.141   2.423  0.00  0.00    +0.245 C 
ATOM      2  C   LIG    1        2.170  -1.554   3.633  0.00  0.00    +0.262 C 
ENDROOT
BRANCH   1   3
ATOM      3  N   LIG    1        0.820  -2.967   2.260  0.00  0.00    -0.355 NA
ATOM      4  H   LIG    1        0.405  -2.780   1.358  0.00  0.00    +0.248 HD
ATOM      5  H   LIG    1        0.142  -2.716   2.965  0.00  0.00    +0.248 HD
BRANCH   3   6
ATOM      6  C   LIG    1        1.112  -4.473   2.374  0.00  0.00    +0.220 C 
BRANCH   6   7
ATOM      7  C   LIG    1       -0.135  -5.322   2.202  0.00  0.00    -0.008 A 
ATOM      8  C   LIG    1       -0.893  -5.691   3.327  0.00  0.00    +0.056 A 
ATOM      9  C   LIG    1       -2.019  -6.481   3.120  0.00  0.00    +0.167 A 
ATOM     10  O   LIG    1       -2.890  -6.980   4.036  0.00  0.00    -0.453 OA
ATOM     11  C   LIG    1       -3.933  -7.554   3.293  0.00  0.00    +0.466 C 
ATOM     12  O   LIG    1       -3.490  -7.687   1.968  0.00  0.00    -0.453 OA
ATOM     13  C   LIG    1       -2.381  -6.907   1.873  0.00  0.00    +0.166 A 
ATOM     14  C   LIG    1       -1.644  -6.575   0.742  0.00  0.00    +0.050 A 
ATOM     15  C   LIG    1       -0.510  -5.771   0.920  0.00  0.00    +0.011 A 
ENDBRANCH   6   7
ENDBRANCH   3   6
ENDBRANCH   1   3
BRANCH   1  16
ATOM     16  N   LIG    1        2.816  -2.063   1.298  0.00  0.00    -0.239 N 
ATOM     17  H   LIG    1        3.746  -1.689   1.436  0.00  0.00    +0.291 HD
BRANCH  16  18
ATOM     18  C   LIG    1        2.371  -1.847  -0.075  0.00  0.00    +0.233 C 
BRANCH  18  19
ATOM     19  C   LIG    1        2.132  -0.368  -0.417  0.00  0.00    +0.113 C 
BRANCH  19  20
ATOM     20  S   LIG    1        0.698   0.397   0.399  0.00  0.00    -0.149 S 
BRANCH  20  21
ATOM     21  C   LIG    1        0.877   2.118  -0.150  0.00  0.00    +0.143 C 
BRANCH  21  24
ATOM     22  C   LIG    1       -0.617   2.181  -3.434  0.00  0.00    +0.089 A 
ATOM     23  O   LIG    1       -0.596   1.951  -2.095  0.00  0.00    -0.466 OA
ATOM     24  C   LIG    1        0.635   2.295  -1.632  0.00  0.00    +0.115 A 
ATOM     25  C   LIG    1        1.411   2.745  -2.688  0.00  0.00    +0.046 A 
ATOM     26  C   LIG    1        0.619   2.667  -3.833  0.00  0.00    +0.043 A 
BRANCH  22  27
ATOM     27  C   LIG    1       -1.906   1.856  -4.161  0.00  0.00    -0.004 C 
BRANCH  27  29
ATOM     28  C   LIG    1       -4.089   2.829  -5.041  0.00  0.00    -0.096 C 
ATOM     29  N   LIG    1       -2.865   3.069  -4.136  0.00  0.00    +0.381 N 
ATOM     30  H   LIG    1       -2.361   3.852  -4.530  0.00  0.00    -0.082 HD
ATOM     31  C   LIG    1       -3.311   3.481  -2.716  0.00  0.00    -0.096 C 
ENDBRANCH  27  29
ENDBRANCH  22  27
ENDBRANCH  21  24
ENDBRANCH  20  21
ENDBRANCH  19  20
ENDBRANCH  18  19
ENDBRANCH  16  18
ENDBRANCH   1  16
BRANCH   2  32
ATOM     32  N   LIG    1        3.307  -0.667   3.947  0.00  0.00    +0.006 N 
ATOM     33  O   LIG    1        3.390  -0.322   5.120  0.00  0.00    -0.130 OA
BRANCH  32  34
ATOM     34  O   LIG    1        4.071  -0.319   3.050  0.00  0.00    -0.396 OA
ATOM     35  H   LIG    1        3.939  -0.628   2.176  0.00  0.00    +0.329 HD
ENDBRANCH  32  34
ENDBRANCH   2  32
TORSDOF 13
