REMARK  Name = DB13956
REMARK                            x       y       z     vdW  Elec       q    Type
REMARK                         _______ _______ _______ _____ _____    ______ ____
ROOT
ATOM      1  C   LIG    1       -3.907  -2.432  -0.722  0.00  0.00    +0.002 C 
ATOM      2  C   LIG    1       -3.801  -1.416  -1.868  0.00  0.00    +0.008 C 
ATOM      3  C   LIG    1       -2.601  -0.533  -1.471  0.00  0.00    +0.045 C 
ATOM      4  C   LIG    1       -1.985  -1.192  -0.210  0.00  0.00    +0.183 C 
ATOM      5  C   LIG    1       -2.452  -2.667  -0.253  0.00  0.00    +0.008 C 
ATOM      6  C   LIG    1       -1.577  -3.489  -1.255  0.00  0.00    +0.015 C 
ATOM      7  C   LIG    1       -2.536  -3.367   1.128  0.00  0.00    +0.011 C 
ATOM      8  C   LIG    1       -3.241  -4.746   1.028  0.00  0.00    +0.009 C 
ATOM      9  C   LIG    1       -4.653  -4.654   0.364  0.00  0.00    +0.023 C 
ATOM     10  C   LIG    1       -5.354  -5.987   0.057  0.00  0.00    -0.041 A 
ATOM     11  C   LIG    1       -4.843  -7.238   0.431  0.00  0.00    +0.008 A 
ATOM     12  C   LIG    1       -5.495  -8.418   0.081  0.00  0.00    +0.046 A 
ATOM     13  C   LIG    1       -6.675  -8.366  -0.653  0.00  0.00    +0.117 A 
ATOM     14  C   LIG    1       -7.204  -7.132  -1.024  0.00  0.00    +0.049 A 
ATOM     15  C   LIG    1       -6.563  -5.940  -0.670  0.00  0.00    -0.040 A 
ATOM     16  C   LIG    1       -7.149  -4.579  -1.031  0.00  0.00    +0.036 C 
ATOM     17  C   LIG    1       -6.074  -3.613  -1.587  0.00  0.00    +0.009 C 
ATOM     18  C   LIG    1       -4.680  -3.758  -0.918  0.00  0.00    +0.000 C 
ENDROOT
BRANCH  13  19
ATOM     19  O   LIG    1       -7.316  -9.524  -1.006  0.00  0.00    -0.507 OA
ATOM     20  H   LIG    1       -8.115  -9.369  -1.515  0.00  0.00    +0.292 HD
ENDBRANCH  13  19
BRANCH   4  21
ATOM     21  O   LIG    1       -0.563  -1.065  -0.149  0.00  0.00    -0.461 OA
BRANCH  21  22
ATOM     22  C   LIG    1        0.031   0.096   0.210  0.00  0.00    +0.307 C 
ATOM     23  O   LIG    1       -0.542   1.137   0.537  0.00  0.00    -0.251 OA
BRANCH  22  24
ATOM     24  C   LIG    1        1.557   0.009   0.172  0.00  0.00    +0.120 C 
BRANCH  24  25
ATOM     25  C   LIG    1        2.144  -0.725   1.392  0.00  0.00    +0.011 C 
BRANCH  25  26
ATOM     26  C   LIG    1        3.681  -0.768   1.363  0.00  0.00    -0.003 C 
ATOM     27  C   LIG    1        4.286  -1.500   2.569  0.00  0.00    +0.004 C 
ENDBRANCH  25  26
ENDBRANCH  24  25
ENDBRANCH  22  24
ENDBRANCH  21  22
ENDBRANCH   4  21
TORSDOF 6
