REMARK  Name = DB13944
REMARK                            x       y       z     vdW  Elec       q    Type
REMARK                         _______ _______ _______ _____ _____    ______ ____
ROOT
ATOM      1  C   LIG    1        0.537   6.723  -2.820  0.00  0.00    -0.003 C 
ATOM      2  C   LIG    1        0.266   8.186  -2.425  0.00  0.00    +0.008 C 
ATOM      3  C   LIG    1        0.932   9.153  -3.411  0.00  0.00    +0.032 C 
ATOM      4  C   LIG    1        0.388   8.909  -4.821  0.00  0.00    -0.060 C 
ATOM      5  C   LIG    1       -0.111   9.928  -5.560  0.00  0.00    +0.046 C 
ATOM      6  C   LIG    1       -0.600   9.804  -6.925  0.00  0.00    +0.156 C 
ATOM      7  O   LIG    1       -1.142  10.742  -7.506  0.00  0.00    -0.293 OA
ATOM      8  C   LIG    1       -0.277   8.484  -7.629  0.00  0.00    +0.080 C 
ATOM      9  C   LIG    1       -0.363   7.299  -6.648  0.00  0.00    +0.019 C 
ATOM     10  C   LIG    1        0.494   7.444  -5.345  0.00  0.00    -0.007 C 
ATOM     11  C   LIG    1        1.985   7.172  -5.686  0.00  0.00    +0.016 C 
ATOM     12  C   LIG    1       -0.085   5.726  -1.803  0.00  0.00    +0.002 C 
ATOM     13  C   LIG    1        0.273   5.819  -0.312  0.00  0.00    +0.008 C 
ATOM     14  C   LIG    1       -0.088   4.428   0.249  0.00  0.00    +0.045 C 
ATOM     15  C   LIG    1       -0.489   3.569  -0.976  0.00  0.00    +0.183 C 
ATOM     16  C   LIG    1        0.185   4.253  -2.188  0.00  0.00    +0.008 C 
ATOM     17  C   LIG    1       -0.519   4.003  -3.544  0.00  0.00    +0.011 C 
ATOM     18  C   LIG    1        0.031   4.948  -4.640  0.00  0.00    +0.005 C 
ATOM     19  C   LIG    1        1.702   3.883  -2.259  0.00  0.00    +0.015 C 
ATOM     20  C   LIG    1       -0.063   6.460  -4.243  0.00  0.00    +0.002 C 
ENDROOT
BRANCH  15  21
ATOM     21  O   LIG    1       -0.115   2.196  -0.851  0.00  0.00    -0.461 OA
BRANCH  21  22
ATOM     22  C   LIG    1       -0.797   1.339  -0.055  0.00  0.00    +0.307 C 
ATOM     23  O   LIG    1       -1.805   1.608   0.600  0.00  0.00    -0.251 OA
BRANCH  22  24
ATOM     24  C   LIG    1       -0.184  -0.069  -0.015  0.00  0.00    +0.120 C 
BRANCH  24  25
ATOM     25  C   LIG    1        1.362  -0.121   0.008  0.00  0.00    +0.011 C 
BRANCH  25  26
ATOM     26  C   LIG    1        2.007   0.560   1.233  0.00  0.00    +0.001 C 
BRANCH  26  27
ATOM     27  C   LIG    1        3.543   0.465   1.233  0.00  0.00    -0.000 C 
BRANCH  27  28
ATOM     28  C   LIG    1        4.185   1.168   2.442  0.00  0.00    -0.003 C 
ATOM     29  C   LIG    1        5.717   1.086   2.438  0.00  0.00    +0.004 C 
ENDBRANCH  27  28
ENDBRANCH  26  27
ENDBRANCH  25  26
ENDBRANCH  24  25
ENDBRANCH  22  24
ENDBRANCH  21  22
ENDBRANCH  15  21
TORSDOF 7
