REMARK  Name = DB13091
REMARK                            x       y       z     vdW  Elec       q    Type
REMARK                         _______ _______ _______ _____ _____    ______ ____
ROOT
ATOM      1  C   LIG    1       -0.261   0.348  -0.129  0.00  0.00    +0.164 C 
ENDROOT
BRANCH   1   4
ATOM      2  C   LIG    1       -0.754   2.727  -0.891  0.00  0.00    +0.245 C 
ATOM      3  O   LIG    1       -0.022   2.709  -1.882  0.00  0.00    -0.270 OA
ATOM      4  N   LIG    1       -0.902   1.675  -0.058  0.00  0.00    -0.300 N 
ATOM      5  H   LIG    1       -1.543   1.784   0.714  0.00  0.00    +0.150 HD
BRANCH   2  10
ATOM      6  C   LIG    1       -2.760   5.343   1.043  0.00  0.00    +0.001 A 
ATOM      7  C   LIG    1       -3.046   6.256   0.032  0.00  0.00    +0.000 A 
ATOM      8  C   LIG    1       -2.595   6.037  -1.267  0.00  0.00    +0.001 A 
ATOM      9  C   LIG    1       -1.854   4.894  -1.557  0.00  0.00    +0.013 A 
ATOM     10  C   LIG    1       -1.563   3.960  -0.553  0.00  0.00    +0.037 A 
ATOM     11  C   LIG    1       -2.021   4.199   0.753  0.00  0.00    +0.013 A 
ENDBRANCH   2  10
ENDBRANCH   1   4
BRANCH   1  12
ATOM     12  C   LIG    1       -0.839  -0.563  -1.250  0.00  0.00    +0.236 C 
ATOM     13  N   LIG    1       -0.883  -1.912  -1.059  0.00  0.00    -0.300 N 
ATOM     14  O   LIG    1       -1.222  -0.035  -2.298  0.00  0.00    -0.274 OA
BRANCH  13  15
ATOM     15  C   LIG    1       -1.402  -2.809  -2.102  0.00  0.00    +0.107 C 
BRANCH  15  16
ATOM     16  C   LIG    1       -0.347  -3.191  -3.157  0.00  0.00    +0.016 C 
ATOM     17  C   LIG    1       -0.910  -4.126  -4.235  0.00  0.00    +0.005 C 
ENDBRANCH  15  16
ENDBRANCH  13  15
BRANCH  13  18
ATOM     18  C   LIG    1       -0.485  -2.599   0.179  0.00  0.00    +0.107 C 
BRANCH  18  19
ATOM     19  C   LIG    1       -1.641  -2.762   1.184  0.00  0.00    +0.016 C 
ATOM     20  C   LIG    1       -1.193  -3.445   2.483  0.00  0.00    +0.005 C 
ENDBRANCH  18  19
ENDBRANCH  13  18
ENDBRANCH   1  12
BRANCH   1  21
ATOM     21  C   LIG    1        1.294   0.400  -0.193  0.00  0.00    +0.067 C 
BRANCH  21  22
ATOM     22  C   LIG    1        1.901   1.142   0.993  0.00  0.00    -0.045 A 
ATOM     23  C   LIG    1        1.963   0.521   2.242  0.00  0.00    +0.007 A 
ATOM     24  C   LIG    1        2.510   1.198   3.328  0.00  0.00    +0.046 A 
ATOM     25  C   LIG    1        2.998   2.497   3.183  0.00  0.00    +0.120 A 
ATOM     26  C   LIG    1        2.939   3.115   1.924  0.00  0.00    +0.046 A 
ATOM     27  C   LIG    1        2.396   2.438   0.835  0.00  0.00    +0.007 A 
BRANCH  25  28
ATOM     28  O   LIG    1        3.515   3.090   4.319  0.00  0.00    -0.494 OA
BRANCH  28  29
ATOM     29  C   LIG    1        4.005   4.428   4.252  0.00  0.00    +0.210 C 
BRANCH  29  30
ATOM     30  C   LIG    1        4.494   4.883   5.641  0.00  0.00    -0.037 C 
BRANCH  30  31
ATOM     31  N   LIG    1        5.468   3.865   6.294  0.00  0.00    +0.382 N 
ATOM     32  H   LIG    1        4.951   3.000   6.374  0.00  0.00    -0.082 HD
BRANCH  31  33
ATOM     33  C   LIG    1        6.708   3.516   5.430  0.00  0.00    -0.082 C 
ATOM     34  C   LIG    1        7.601   4.739   5.145  0.00  0.00    -0.017 C 
ENDBRANCH  31  33
BRANCH  31  35
ATOM     35  C   LIG    1        5.862   4.253   7.742  0.00  0.00    -0.082 C 
ATOM     36  C   LIG    1        4.671   4.119   8.706  0.00  0.00    -0.017 C 
ENDBRANCH  31  35
ENDBRANCH  30  31
ENDBRANCH  29  30
ENDBRANCH  28  29
ENDBRANCH  25  28
ENDBRANCH  21  22
ENDBRANCH   1  21
TORSDOF 15
