REMARK  Name = DB13337
REMARK                            x       y       z     vdW  Elec       q    Type
REMARK                         _______ _______ _______ _____ _____    ______ ____
ROOT
ATOM      1  N   LIG    1       -1.466   1.222   1.224  0.00  0.00    -0.271 N 
ATOM      2  C   LIG    1       -0.808  -0.102   1.380  0.00  0.00    +0.165 C 
ATOM      3  CA  LIG    1       -0.131   0.146   0.013  0.00  0.00    +0.190 C 
ATOM      4  S   LIG    1        0.064   0.054   2.962  0.00  0.00    -0.127 S 
ATOM      5  C   LIG    1       -1.203   1.169   3.643  0.00  0.00    +0.042 C 
ATOM      6  C   LIG    1       -2.352   0.242   4.136  0.00  0.00    +0.025 C 
ATOM      7  C   LIG    1       -0.689   1.959   4.865  0.00  0.00    +0.025 C 
ATOM      8  CA  LIG    1       -1.620   2.065   2.422  0.00  0.00    +0.201 C 
ATOM      9  C   LIG    1       -0.697   1.579   0.110  0.00  0.00    +0.240 C 
ATOM     10  O   LIG    1       -0.496   2.645  -0.470  0.00  0.00    -0.273 OA
ENDROOT
BRANCH   3  11
ATOM     11  N   LIG    1        1.332   0.076  -0.041  0.00  0.00    -0.299 N 
ATOM     12  H   LIG    1        1.816   0.470   0.753  0.00  0.00    +0.150 HD
ATOM     13  C   LIG    1        2.072  -0.461  -1.027  0.00  0.00    +0.254 C 
ATOM     14  O   LIG    1        1.591  -0.975  -2.039  0.00  0.00    -0.272 OA
BRANCH  13  15
ATOM     15  C   LIG    1        3.603  -0.424  -0.823  0.00  0.00    +0.255 C 
ATOM     16  C   LIG    1        4.221   0.762  -1.583  0.00  0.00    +0.062 C 
BRANCH  15  17
ATOM     17  O   LIG    1        4.215  -1.610  -1.349  0.00  0.00    -0.480 OA
BRANCH  17  18
ATOM     18  C   LIG    1        4.090  -2.829  -0.704  0.00  0.00    +0.122 A 
ATOM     19  C   LIG    1        3.462  -3.011   0.540  0.00  0.00    +0.045 A 
ATOM     20  C   LIG    1        3.390  -4.279   1.110  0.00  0.00    +0.004 A 
ATOM     21  C   LIG    1        3.946  -5.369   0.445  0.00  0.00    +0.000 A 
ATOM     22  C   LIG    1        4.574  -5.201  -0.786  0.00  0.00    +0.004 A 
ATOM     23  C   LIG    1        4.645  -3.933  -1.355  0.00  0.00    +0.045 A 
ENDBRANCH  17  18
ENDBRANCH  15  17
ENDBRANCH  13  15
ENDBRANCH   3  11
BRANCH   8  24
ATOM     24  C   LIG    1       -2.982   2.792   2.576  0.00  0.00    +0.327 C 
ATOM     25  OXT LIG    1       -3.283   3.424   3.567  0.00  0.00    -0.249 OA
BRANCH  24  26
ATOM     26  O   LIG    1       -3.781   2.644   1.478  0.00  0.00    -0.479 OA
ATOM     27  H   LIG    1       -4.621   3.100   1.574  0.00  0.00    +0.295 HD
ENDBRANCH  24  26
ENDBRANCH   8  24
TORSDOF 6
