REMARK  Name = DB13000
REMARK                            x       y       z     vdW  Elec       q    Type
REMARK                         _______ _______ _______ _____ _____    ______ ____
ROOT
ATOM      1  C   UNK A  0       -2.195   1.138  -0.009  0.00  0.00    +0.033 A 
ATOM      2  C   UNK A  0       -2.841  -0.115  -0.057  0.00  0.00    +0.131 A 
ATOM      3  C   UNK A  0       -2.097  -1.311  -0.033  0.00  0.00    +0.028 A 
ATOM      4  C   UNK A  0       -0.703  -1.236   0.039  0.00  0.00    +0.016 A 
ATOM      5  C   UNK A  0       -0.048  -0.007   0.089  0.00  0.00    -0.037 A 
ATOM      6  C   UNK A  0       -0.797   1.169   0.066  0.00  0.00    +0.014 A 
ENDROOT
BRANCH   1  13
ATOM      7  C   UNK A  0       -4.504   6.758   0.047  0.00  0.00    +0.018 C 
ATOM      8  C   UNK A  0       -5.747   6.120  -0.144  0.00  0.00    +0.094 C 
ATOM      9  C   UNK A  0       -5.777   4.711  -0.238  0.00  0.00    +0.038 C 
ATOM     10  C   UNK A  0       -4.569   4.016  -0.132  0.00  0.00    +0.066 C 
ATOM     11  N   UNK A  0       -4.275   2.661  -0.182  0.00  0.00    -0.283 NA
ATOM     12  H   UNK A  0       -4.920   1.894  -0.310  0.00  0.00    +0.125 HD
ATOM     13  C   UNK A  0       -2.925   2.454  -0.022  0.00  0.00    +0.138 C 
ATOM     14  N   UNK A  0       -2.367   3.705   0.125  0.00  0.00    -0.283 NA
ATOM     15  H   UNK A  0       -1.376   3.841   0.263  0.00  0.00    +0.125 HD
ATOM     16  C   UNK A  0       -3.352   4.682   0.060  0.00  0.00    +0.065 C 
ATOM     17  C   UNK A  0       -3.293   6.072   0.153  0.00  0.00    +0.023 C 
BRANCH   8  18
ATOM     18  C   UNK A  0       -6.997   6.909  -0.246  0.00  0.00    +0.242 C 
ATOM     19  N   UNK A  0       -8.145   6.402   0.200  0.00  0.00    -0.292 N 
ATOM     20  H   UNK A  0       -8.160   5.481   0.613  0.00  0.00    +0.301 HD
ATOM     21  H   UNK A  0       -8.995   6.942   0.129  0.00  0.00    +0.301 HD
BRANCH  18  22
ATOM     22  N   UNK A  0       -6.979   8.127  -0.784  0.00  0.00    -0.253 N 
ATOM     23  H   UNK A  0       -6.111   8.508  -1.129  0.00  0.00    +0.288 HD
ATOM     24  H   UNK A  0       -7.832   8.662  -0.848  0.00  0.00    +0.288 HD
ENDBRANCH  18  22
ENDBRANCH   8  18
ENDBRANCH   1  13
BRANCH   3  25
ATOM     25  C   UNK A  0       -2.748  -2.654  -0.082  0.00  0.00    +0.029 A 
ATOM     26  C   UNK A  0       -2.567  -3.607   0.939  0.00  0.00    +0.125 A 
ATOM     27  C   UNK A  0       -3.184  -4.856   0.857  0.00  0.00    +0.048 A 
ATOM     28  C   UNK A  0       -3.989  -5.172  -0.235  0.00  0.00    +0.032 A 
ATOM     29  C   UNK A  0       -4.179  -4.239  -1.254  0.00  0.00    +0.106 A 
ATOM     30  C   UNK A  0       -3.558  -2.990  -1.175  0.00  0.00    +0.040 A 
BRANCH  29  31
ATOM     31  S   UNK A  0       -5.220  -4.659  -2.647  0.00  0.00    +0.056 S 
ATOM     32  O   UNK A  0       -5.242  -3.510  -3.559  0.00  0.00    -0.153 OA
ATOM     33  O   UNK A  0       -6.461  -5.212  -2.095  0.00  0.00    -0.153 OA
BRANCH  31  34
ATOM     34  N   UNK A  0       -4.373  -5.965  -3.454  0.00  0.00    -0.204 NA
ATOM     35  H   UNK A  0       -4.307  -6.829  -2.910  0.00  0.00    +0.144 HD
ATOM     36  H   UNK A  0       -3.489  -5.692  -3.892  0.00  0.00    +0.144 HD
ENDBRANCH  31  34
ENDBRANCH  29  31
BRANCH  26  37
ATOM     37  O   UNK A  0       -1.799  -3.334   2.043  0.00  0.00    -0.506 OA
ATOM     38  H   UNK A  0       -1.433  -2.446   2.039  0.00  0.00    +0.292 HD
ENDBRANCH  26  37
ENDBRANCH   3  25
BRANCH   2  39
ATOM     39  O   UNK A  0       -4.214  -0.186  -0.101  0.00  0.00    -0.506 OA
ATOM     40  H   UNK A  0       -4.540  -1.090  -0.099  0.00  0.00    +0.292 HD
ENDBRANCH   2  39
BRANCH   5  41
ATOM     41  C   UNK A  0        1.470   0.046   0.219  0.00  0.00    +0.131 C 
BRANCH  41  42
ATOM     42  C   UNK A  0        1.891  -0.017   1.692  0.00  0.00    +0.218 C 
ATOM     43  N   ASP A  1        2.418  -1.180   2.119  0.00  0.00    -0.302 N 
ATOM     44  H   ASP A  1        2.517  -1.939   1.461  0.00  0.00    +0.150 HD
ATOM     45  O   UNK A  0        1.717   0.960   2.421  0.00  0.00    -0.275 OA
BRANCH  43  46
ATOM     46  CA  ASP A  1        2.868  -1.485   3.487  0.00  0.00    +0.192 C 
BRANCH  46  47
ATOM     47  C   ASP A  1        4.284  -0.835   3.734  0.00  0.00    +0.326 C 
ATOM     48  O   ASP A  1        4.296   0.110   4.556  0.00  0.00    -0.249 OA
BRANCH  47  49
ATOM     49  OXT ASP A  1        5.227  -1.317   3.062  0.00  0.00    -0.479 OA
ATOM     50  HXT ASP A  1        5.068  -2.033   2.478  0.00  0.00    +0.295 HD
ENDBRANCH  47  49
ENDBRANCH  46  47
BRANCH  46  51
ATOM     51  CB  ASP A  1        2.810  -3.028   3.729  0.00  0.00    +0.154 C 
BRANCH  51  52
ATOM     52  CG  ASP A  1        3.118  -3.550   5.149  0.00  0.00    +0.307 C 
ATOM     53  OD1 ASP A  1        3.351  -4.775   5.248  0.00  0.00    -0.251 OA
BRANCH  52  54
ATOM     54  OD2 ASP A  1        2.976  -2.776   6.122  0.00  0.00    -0.481 OA
ATOM     55  HD2 ASP A  1        2.803  -1.867   5.977  0.00  0.00    +0.295 HD
ENDBRANCH  52  54
ENDBRANCH  51  52
ENDBRANCH  46  51
ENDBRANCH  43  46
ENDBRANCH  41  42
ENDBRANCH   5  41
TORSDOF 16
