REMARK  Name = DB13080
REMARK                            x       y       z     vdW  Elec       q    Type
REMARK                         _______ _______ _______ _____ _____    ______ ____
ROOT
ATOM      1  C   LIG    1       -2.587  -1.087  -0.144  0.00  0.00    +0.003 C 
ATOM      2  C   LIG    1       -1.848  -0.347  -1.280  0.00  0.00    -0.014 C 
ATOM      3  C   LIG    1       -0.330  -0.593  -1.217  0.00  0.00    -0.078 C 
ATOM      4  N   LIG    1        0.191  -0.130   0.164  0.00  0.00    +0.385 N 
ATOM      5  H   LIG    1       -0.006   0.857   0.251  0.00  0.00    -0.081 HD
ATOM      6  C   LIG    1       -0.521  -0.867   1.326  0.00  0.00    -0.078 C 
ATOM      7  C   LIG    1       -2.036  -0.614   1.216  0.00  0.00    -0.014 C 
ENDROOT
BRANCH   1   8
ATOM      8  C   LIG    1       -4.124  -0.930  -0.223  0.00  0.00    +0.111 C 
BRANCH   8  13
ATOM      9  C   LIG    1       -6.342  -4.584  -4.570  0.00  0.00    +0.000 A 
ATOM     10  C   LIG    1       -5.854  -4.599  -3.260  0.00  0.00    +0.006 A 
ATOM     11  C   LIG    1       -5.471  -3.400  -2.656  0.00  0.00    -0.018 A 
ATOM     12  C   LIG    1       -4.921  -3.118  -1.293  0.00  0.00    +0.144 C 
ATOM     13  N   LIG    1       -4.744  -1.669  -1.326  0.00  0.00    -0.293 N 
ATOM     14  C   LIG    1       -5.095  -1.082  -2.494  0.00  0.00    +0.247 C 
ATOM     15  O   LIG    1       -5.018   0.112  -2.785  0.00  0.00    -0.270 OA
ATOM     16  C   LIG    1       -5.577  -2.209  -3.351  0.00  0.00    +0.042 A 
ATOM     17  C   LIG    1       -6.061  -2.178  -4.660  0.00  0.00    +0.013 A 
ATOM     18  C   LIG    1       -6.446  -3.376  -5.268  0.00  0.00    +0.001 A 
ENDBRANCH   8  13
ENDBRANCH   1   8
BRANCH   4  19
ATOM     19  C   LIG    1        1.722  -0.342   0.243  0.00  0.00    +0.002 C 
BRANCH  19  20
ATOM     20  C   LIG    1        2.421   0.589   1.247  0.00  0.00    +0.147 C 
ATOM     21  O   LIG    1        3.051   0.066   2.166  0.00  0.00    -0.294 OA
BRANCH  20  22
ATOM     22  C   LIG    1        2.290   2.076   1.082  0.00  0.00    +0.016 A 
ATOM     23  C   LIG    1        2.705   2.918   2.124  0.00  0.00    +0.014 A 
ATOM     24  C   LIG    1        2.610   4.301   1.994  0.00  0.00    +0.039 A 
ATOM     25  C   LIG    1        2.109   4.853   0.819  0.00  0.00    +0.123 A 
ATOM     26  F   LIG    1        2.017   6.197   0.693  0.00  0.00    -0.205 F 
ATOM     27  C   LIG    1        1.706   4.032  -0.230  0.00  0.00    +0.039 A 
ATOM     28  C   LIG    1        1.800   2.648  -0.102  0.00  0.00    +0.014 A 
ENDBRANCH  20  22
ENDBRANCH  19  20
ENDBRANCH   4  19
TORSDOF 5
