REMARK  Name = DB13090
REMARK                            x       y       z     vdW  Elec       q    Type
REMARK                         _______ _______ _______ _____ _____    ______ ____
ROOT
ATOM      1  N   LIG    1       -0.577  -1.470  -0.797  0.00  0.00    -0.233 N 
ATOM      2  H   LIG    1       -0.152  -1.961  -1.571  0.00  0.00    +0.173 HD
ATOM      3  C   LIG    1        0.028  -0.517  -0.053  0.00  0.00    +0.250 C 
ATOM      4  O   LIG    1       -0.564   0.180   0.777  0.00  0.00    -0.272 OA
ENDROOT
BRANCH   3   5
ATOM      5  C   LIG    1        1.552  -0.358  -0.289  0.00  0.00    +0.165 C 
ATOM      6  N   LIG    1        1.855  -0.061  -1.716  0.00  0.00    -0.270 N 
ATOM      7  C   LIG    1        3.141  -0.223  -2.119  0.00  0.00    +0.331 C 
ATOM      8  N   LIG    1        3.554   1.067  -2.115  0.00  0.00    -0.132 N 
ATOM      9  C   LIG    1        2.555   2.026  -1.664  0.00  0.00    +0.127 C 
ATOM     10  C   LIG    1        2.432   2.151  -0.117  0.00  0.00    +0.029 C 
ATOM     11  O   LIG    1        3.787  -1.257  -2.282  0.00  0.00    -0.250 OA
ATOM     12  C   LIG    1        1.392   1.235  -2.208  0.00  0.00    +0.135 C 
ATOM     13  C   LIG    1        2.219   0.776   0.590  0.00  0.00    +0.034 C 
BRANCH   8  14
ATOM     14  O   LIG    1        4.873   1.407  -1.831  0.00  0.00    -0.096 OA
BRANCH  14  15
ATOM     15  S   LIG    1        5.706   1.935  -3.182  0.00  0.00    +0.227 S 
ATOM     16  O   LIG    1        5.659   0.799  -4.111  0.00  0.00    -0.116 OA
ATOM     17  O   LIG    1        7.045   2.230  -2.662  0.00  0.00    -0.116 OA
BRANCH  15  18
ATOM     18  O   LIG    1        4.962   3.119  -3.630  0.00  0.00    -0.230 OA
ATOM     19  H   LIG    1        5.041   3.821  -2.966  0.00  0.00    +0.247 HD
ENDBRANCH  15  18
ENDBRANCH  14  15
ENDBRANCH   8  14
ENDBRANCH   3   5
BRANCH   1  21
ATOM     20  C   LIG    1       -2.474  -2.648  -0.006  0.00  0.00    +0.230 C 
ATOM     21  N   LIG    1       -1.959  -1.624  -0.721  0.00  0.00    -0.234 N 
ATOM     22  H   LIG    1       -2.471  -1.050  -1.376  0.00  0.00    +0.173 HD
ATOM     23  O   LIG    1       -1.795  -3.435   0.662  0.00  0.00    -0.274 OA
BRANCH  20  30
ATOM     24  C   LIG    1       -6.107  -2.472   1.332  0.00  0.00    -0.018 C 
ATOM     25  C   LIG    1       -6.510  -3.943   1.099  0.00  0.00    -0.083 C 
ATOM     26  N   LIG    1       -5.922  -4.436  -0.237  0.00  0.00    +0.380 N 
ATOM     27  H   LIG    1       -6.165  -5.407  -0.374  0.00  0.00    -0.086 HD
ATOM     28  H   LIG    1       -6.344  -3.917  -0.993  0.00  0.00    -0.086 HD
ATOM     29  C   LIG    1       -4.390  -4.277  -0.314  0.00  0.00    -0.070 C 
ATOM     30  C   LIG    1       -4.010  -2.798  -0.037  0.00  0.00    +0.059 C 
ATOM     31  C   LIG    1       -4.580  -2.269   1.303  0.00  0.00    +0.009 C 
ENDBRANCH  20  30
ENDBRANCH   1  21
TORSDOF 6
