REMARK  Name = DB13058
REMARK                            x       y       z     vdW  Elec       q    Type
REMARK                         _______ _______ _______ _____ _____    ______ ____
ROOT
ATOM      1  C   LIG    1       -0.058  -0.005   0.000  0.00  0.00    +0.234 C 
ATOM      2  S   LIG    1        1.827   0.024   0.000  0.00  0.00    +0.115 S 
ATOM      3  O   LIG    1        2.340   0.506   1.287  0.00  0.00    -0.143 OA
ATOM      4  O   LIG    1        2.340   0.506  -1.287  0.00  0.00    -0.143 OA
ATOM      5  F   LIG    1        2.056  -1.586   0.000  0.00  0.00    -0.062 F 
ENDROOT
TORSDOF 0
