REMARK  Name = DB13124
REMARK                            x       y       z     vdW  Elec       q    Type
REMARK                         _______ _______ _______ _____ _____    ______ ____
ROOT
ATOM      1  C   LIG    1        1.184   0.179   0.219  0.00  0.00    +0.214 A 
ATOM      2  C   LIG    1        1.891   0.198   1.511  0.00  0.00    +0.238 A 
ATOM      3  C   LIG    1        3.385   0.358   1.372  0.00  0.00    +0.109 A 
ATOM      4  C   LIG    1        4.264   0.456   2.472  0.00  0.00    +0.135 A 
ATOM      5  C   LIG    1        5.635   0.630   2.272  0.00  0.00    +0.092 A 
ATOM      6  C   LIG    1        6.174   0.713   0.981  0.00  0.00    +0.128 A 
ATOM      7  C   LIG    1        5.316   0.594  -0.108  0.00  0.00    +0.092 A 
ATOM      8  C   LIG    1        3.949   0.418   0.084  0.00  0.00    +0.147 A 
ATOM      9  O   LIG    1        3.195   0.306  -1.067  0.00  0.00    -0.451 OA
ATOM     10  O   LIG    1        1.325   0.106   2.602  0.00  0.00    -0.283 OA
ATOM     11  C   LIG    1        1.842   0.241  -0.963  0.00  0.00    +0.181 A 
ENDROOT
BRANCH  11  12
ATOM     12  C   LIG    1        1.223   0.154  -2.305  0.00  0.00    +0.025 A 
ATOM     13  C   LIG    1        0.173  -0.731  -2.561  0.00  0.00    +0.015 A 
ATOM     14  C   LIG    1       -0.421  -0.787  -3.818  0.00  0.00    +0.050 A 
ATOM     15  C   LIG    1        0.026   0.043  -4.858  0.00  0.00    +0.162 A 
ATOM     16  C   LIG    1        1.082   0.934  -4.619  0.00  0.00    +0.163 A 
ATOM     17  C   LIG    1        1.668   0.980  -3.342  0.00  0.00    +0.061 A 
BRANCH  16  18
ATOM     18  O   LIG    1        1.486   1.728  -5.678  0.00  0.00    -0.486 OA
BRANCH  18  19
ATOM     19  C   LIG    1        2.561   2.648  -5.502  0.00  0.00    +0.257 C 
BRANCH  19  20
ATOM     20  C   LIG    1        2.804   3.374  -6.831  0.00  0.00    +0.196 C 
BRANCH  20  21
ATOM     21  O   LIG    1        3.862   4.301  -6.706  0.00  0.00    -0.392 OA
ATOM     22  H   LIG    1        4.683   3.817  -6.592  0.00  0.00    +0.210 HD
ENDBRANCH  20  21
ENDBRANCH  19  20
ENDBRANCH  18  19
ENDBRANCH  16  18
BRANCH  15  23
ATOM     23  O   LIG    1       -0.521   0.041  -6.130  0.00  0.00    -0.486 OA
BRANCH  23  24
ATOM     24  C   LIG    1       -1.607  -0.832  -6.430  0.00  0.00    +0.257 C 
BRANCH  24  25
ATOM     25  C   LIG    1       -2.009  -0.622  -7.895  0.00  0.00    +0.196 C 
BRANCH  25  26
ATOM     26  O   LIG    1       -3.091  -1.462  -8.240  0.00  0.00    -0.392 OA
ATOM     27  H   LIG    1       -3.313  -1.312  -9.162  0.00  0.00    +0.210 HD
ENDBRANCH  25  26
ENDBRANCH  24  25
ENDBRANCH  23  24
ENDBRANCH  15  23
ENDBRANCH  11  12
BRANCH   4  28
ATOM     28  O   LIG    1        3.832   0.393   3.773  0.00  0.00    -0.506 OA
ATOM     29  H   LIG    1        4.548   0.473   4.407  0.00  0.00    +0.292 HD
ENDBRANCH   4  28
BRANCH   1  30
ATOM     30  O   LIG    1       -0.174   0.133   0.300  0.00  0.00    -0.453 OA
BRANCH  30  32
ATOM     31  O   LIG    1       -0.628   2.063   1.454  0.00  0.00    -0.331 OA
ATOM     32  C   LIG    1       -0.801   1.387   0.238  0.00  0.00    +0.340 C 
ATOM     33  C   LIG    1       -2.305   1.159   0.023  0.00  0.00    +0.214 C 
ATOM     34  C   LIG    1       -3.056   2.517   0.067  0.00  0.00    +0.180 C 
ATOM     35  C   LIG    1       -2.639   3.378   1.285  0.00  0.00    +0.177 C 
ATOM     36  C   LIG    1       -1.098   3.410   1.420  0.00  0.00    +0.179 C 
BRANCH  35  37
ATOM     37  O   LIG    1       -3.180   4.686   1.214  0.00  0.00    -0.386 OA
ATOM     38  H   LIG    1       -2.947   5.069   0.365  0.00  0.00    +0.210 HD
ENDBRANCH  35  37
BRANCH  34  39
ATOM     39  O   LIG    1       -4.460   2.327   0.028  0.00  0.00    -0.386 OA
ATOM     40  H   LIG    1       -4.651   1.580  -0.545  0.00  0.00    +0.210 HD
ENDBRANCH  34  39
BRANCH  33  41
ATOM     41  O   LIG    1       -2.554   0.474  -1.192  0.00  0.00    -0.383 OA
ATOM     42  H   LIG    1       -2.458   1.095  -1.919  0.00  0.00    +0.210 HD
ENDBRANCH  33  41
BRANCH  36  43
ATOM     43  C   LIG    1       -0.592   4.103   2.697  0.00  0.00    +0.197 C 
BRANCH  43  44
ATOM     44  O   LIG    1        0.819   3.923   2.744  0.00  0.00    -0.346 OA
BRANCH  44  45
ATOM     45  C   LIG    1        1.492   4.603   3.759  0.00  0.00    +0.282 C 
ATOM     46  C   LIG    1        2.916   4.032   3.840  0.00  0.00    +0.201 C 
ATOM     47  C   LIG    1        3.718   4.390   2.565  0.00  0.00    +0.179 C 
ATOM     48  C   LIG    1        3.646   5.904   2.272  0.00  0.00    +0.174 C 
ATOM     49  C   LIG    1        2.173   6.388   2.313  0.00  0.00    +0.149 C 
ATOM     50  C   LIG    1        2.041   7.917   2.200  0.00  0.00    +0.041 C 
ATOM     51  O   LIG    1        1.528   5.994   3.533  0.00  0.00    -0.343 OA
BRANCH  48  52
ATOM     52  O   LIG    1        4.254   6.214   1.029  0.00  0.00    -0.387 OA
ATOM     53  H   LIG    1        4.380   7.165   0.980  0.00  0.00    +0.210 HD
ENDBRANCH  48  52
BRANCH  47  54
ATOM     54  O   LIG    1        5.053   3.912   2.623  0.00  0.00    -0.386 OA
ATOM     55  H   LIG    1        5.518   4.388   3.314  0.00  0.00    +0.210 HD
ENDBRANCH  47  54
BRANCH  46  56
ATOM     56  O   LIG    1        3.555   4.449   5.035  0.00  0.00    -0.384 OA
ATOM     57  H   LIG    1        4.472   4.167   5.004  0.00  0.00    +0.210 HD
ENDBRANCH  46  56
ENDBRANCH  44  45
ENDBRANCH  43  44
ENDBRANCH  36  43
ENDBRANCH  30  32
ENDBRANCH   1  30
BRANCH   6  58
ATOM     58  O   LIG    1        7.511   0.905   0.698  0.00  0.00    -0.489 OA
BRANCH  58  59
ATOM     59  C   LIG    1        8.426   1.134   1.768  0.00  0.00    +0.256 C 
BRANCH  59  60
ATOM     60  C   LIG    1        9.812   1.459   1.194  0.00  0.00    +0.196 C 
BRANCH  60  61
ATOM     61  O   LIG    1        9.802   2.715   0.545  0.00  0.00    -0.392 OA
ATOM     62  H   LIG    1       10.669   2.870   0.162  0.00  0.00    +0.210 HD
ENDBRANCH  60  61
ENDBRANCH  59  60
ENDBRANCH  58  59
ENDBRANCH   6  58
TORSDOF 25
