REMARK  Name = DB13934
REMARK                            x       y       z     vdW  Elec       q    Type
REMARK                         _______ _______ _______ _____ _____    ______ ____
ROOT
ATOM      1  C   LIG    1       -2.881  -0.146   0.504  0.00  0.00    +0.064 A 
ATOM      2  C   LIG    1       -2.071   0.769   1.180  0.00  0.00    +0.021 A 
ATOM      3  C   LIG    1       -0.693   0.770   0.991  0.00  0.00    +0.024 A 
ATOM      4  C   LIG    1       -0.082  -0.146   0.127  0.00  0.00    +0.031 A 
ATOM      5  C   LIG    1       -0.903  -1.058  -0.551  0.00  0.00    +0.036 A 
ATOM      6  C   LIG    1       -2.296  -1.080  -0.379  0.00  0.00    +0.074 A 
ENDROOT
BRANCH   4   7
ATOM      7  N   LIG    1        1.312  -0.114  -0.073  0.00  0.00    -0.324 N 
ATOM      8  C   LIG    1        2.273   0.410   0.903  0.00  0.00    +0.105 C 
ATOM      9  C   LIG    1        3.478  -0.525   0.871  0.00  0.00    +0.021 C 
ATOM     10  C   LIG    1        3.572  -0.892  -0.593  0.00  0.00    +0.027 C 
ATOM     11  C   LIG    1        2.095  -0.935  -1.015  0.00  0.00    +0.111 C 
BRANCH  11  12
ATOM     12  C   LIG    1        1.852  -0.640  -2.528  0.00  0.00    +0.238 C 
BRANCH  12  13
ATOM     13  C   LIG    1        2.574  -1.603  -3.506  0.00  0.00    +0.417 C 
ATOM     14  F   LIG    1        2.260  -2.873  -3.250  0.00  0.00    -0.168 F 
ATOM     15  F   LIG    1        3.902  -1.501  -3.447  0.00  0.00    -0.168 F 
ATOM     16  F   LIG    1        2.222  -1.357  -4.769  0.00  0.00    -0.168 F 
ENDBRANCH  12  13
BRANCH  12  17
ATOM     17  O   LIG    1        2.205   0.701  -2.828  0.00  0.00    -0.381 OA
ATOM     18  H   LIG    1        1.751   1.280  -2.211  0.00  0.00    +0.210 HD
ENDBRANCH  12  17
ENDBRANCH  11  12
ENDBRANCH   4   7
BRANCH   6  19
ATOM     19  C   LIG    1       -3.132  -2.116  -1.153  0.00  0.00    +0.419 C 
ATOM     20  F   LIG    1       -4.021  -1.496  -1.930  0.00  0.00    -0.166 F 
ATOM     21  F   LIG    1       -3.785  -2.904  -0.297  0.00  0.00    -0.166 F 
ATOM     22  F   LIG    1       -2.390  -2.901  -1.937  0.00  0.00    -0.166 F 
ENDBRANCH   6  19
BRANCH   1  23
ATOM     23  C   LIG    1       -4.320  -0.087   0.750  0.00  0.00    +0.100 C 
ATOM     24  N   LIG    1       -5.460  -0.040   0.944  0.00  0.00    -0.191 NA
ENDBRANCH   1  23
TORSDOF 6
