REMARK  Name = DB13061
REMARK                            x       y       z     vdW  Elec       q    Type
REMARK                         _______ _______ _______ _____ _____    ______ ____
ROOT
ATOM      1  C   LIG    1        4.440   2.161   5.393  0.00  0.00    +0.079 C 
ATOM      2  N   LIG    1        5.275   2.469   4.469  0.00  0.00    -0.278 NA
ATOM      3  C   LIG    1        4.830   3.256   3.336  0.00  0.00    +0.181 C 
ATOM      4  C   LIG    1        3.875   2.476   2.444  0.00  0.00    +0.018 A 
ATOM      5  C   LIG    1        2.605   2.107   2.925  0.00  0.00    +0.082 A 
ATOM      6  N   LIG    1        1.726   1.427   2.134  0.00  0.00    -0.214 NA
ATOM      7  C   LIG    1        2.113   1.115   0.868  0.00  0.00    +0.220 A 
ATOM      8  N   LIG    1        3.320   1.423   0.334  0.00  0.00    -0.222 NA
ATOM      9  C   LIG    1        2.131   2.458   4.309  0.00  0.00    +0.010 A 
ATOM     10  C   LIG    1        0.770   2.773   4.470  0.00  0.00    +0.012 A 
ATOM     11  C   LIG    1        0.248   3.130   5.708  0.00  0.00    +0.020 A 
ATOM     12  C   LIG    1        1.081   3.185   6.816  0.00  0.00    +0.042 A 
ATOM     13 CL   LIG    1        0.443   3.632   8.357  0.00  0.00    -0.084 Cl
ATOM     14  C   LIG    1        2.431   2.879   6.682  0.00  0.00    +0.030 A 
ATOM     15  C   LIG    1        4.182   2.105   1.130  0.00  0.00    +0.122 A 
ATOM     16  C   LIG    1        2.988   2.511   5.443  0.00  0.00    +0.011 A 
ENDROOT
BRANCH   1  21
ATOM     17  C   LIG    1        5.923  -0.178   8.648  0.00  0.00    +0.006 A 
ATOM     18  C   LIG    1        6.154   1.196   8.617  0.00  0.00    +0.039 A 
ATOM     19  C   LIG    1        5.674   1.967   7.558  0.00  0.00    +0.135 A 
ATOM     20  F   LIG    1        5.914   3.301   7.558  0.00  0.00    -0.205 F 
ATOM     21  C   LIG    1        4.952   1.359   6.516  0.00  0.00    +0.071 A 
ATOM     22  C   LIG    1        4.724  -0.027   6.553  0.00  0.00    +0.135 A 
ATOM     23  F   LIG    1        4.035  -0.649   5.566  0.00  0.00    -0.205 F 
ATOM     24  C   LIG    1        5.210  -0.787   7.617  0.00  0.00    +0.039 A 
ENDBRANCH   1  21
BRANCH   7  25
ATOM     25  N   LIG    1        1.241   0.403   0.031  0.00  0.00    -0.284 N 
ATOM     26  H   LIG    1        1.644   0.132  -0.854  0.00  0.00    +0.155 HD
BRANCH  25  27
ATOM     27  C   LIG    1       -0.119   0.079   0.174  0.00  0.00    +0.034 A 
ATOM     28  C   LIG    1       -1.020   0.918   0.834  0.00  0.00    +0.024 A 
ATOM     29  C   LIG    1       -2.362   0.560   0.939  0.00  0.00    +0.017 A 
ATOM     30  C   LIG    1       -2.843  -0.639   0.381  0.00  0.00    +0.059 A 
ATOM     31  C   LIG    1       -1.920  -1.462  -0.292  0.00  0.00    +0.017 A 
ATOM     32  C   LIG    1       -0.578  -1.106  -0.397  0.00  0.00    +0.024 A 
BRANCH  30  33
ATOM     33  C   LIG    1       -4.304  -1.029   0.498  0.00  0.00    +0.337 C 
ATOM     34  O   LIG    1       -5.087  -0.264   1.110  0.00  0.00    -0.245 OA
BRANCH  33  35
ATOM     35  O   LIG    1       -4.686  -2.105  -0.020  0.00  0.00    -0.477 OA
ATOM     36  H   LIG    1       -5.585  -2.362   0.042  0.00  0.00    +0.295 HD
ENDBRANCH  33  35
ENDBRANCH  30  33
ENDBRANCH  25  27
ENDBRANCH   7  25
TORSDOF 5
