REMARK  Name = DB13014
REMARK                            x       y       z     vdW  Elec       q    Type
REMARK                         _______ _______ _______ _____ _____    ______ ____
ROOT
ATOM      1  C   LIG    1       -0.934   3.656  -0.157  0.00  0.00    +0.006 A 
ATOM      2  C   LIG    1       -0.132   2.470  -0.180  0.00  0.00    -0.005 A 
ATOM      3  C   LIG    1       -0.746   1.223   0.147  0.00  0.00    -0.005 A 
ATOM      4  C   LIG    1       -0.053   0.088   0.700  0.00  0.00    -0.039 A 
ATOM      5  C   LIG    1       -0.669  -1.154   0.735  0.00  0.00    +0.050 A 
ATOM      6  C   LIG    1       -1.978  -1.322   0.322  0.00  0.00    +0.129 A 
ATOM      7  C   LIG    1       -2.762  -0.208  -0.035  0.00  0.00    +0.072 A 
ATOM      8  C   LIG    1       -4.171  -0.357  -0.501  0.00  0.00    +0.201 C 
ATOM      9  O   LIG    1       -4.599  -1.429  -0.935  0.00  0.00    -0.286 OA
ATOM     10  C   LIG    1       -5.016   0.875  -0.427  0.00  0.00    +0.072 A 
ATOM     11  C   LIG    1       -6.410   0.815  -0.620  0.00  0.00    +0.132 A 
ATOM     12  C   LIG    1       -7.161   1.972  -0.705  0.00  0.00    +0.092 A 
ATOM     13  C   LIG    1       -6.588   3.219  -0.532  0.00  0.00    +0.129 A 
ATOM     14  C   LIG    1       -5.204   3.343  -0.164  0.00  0.00    +0.036 A 
ATOM     15  C   LIG    1       -4.593   4.580   0.216  0.00  0.00    +0.036 A 
ATOM     16  C   LIG    1       -5.314   5.697   0.766  0.00  0.00    +0.129 A 
ATOM     17  C   LIG    1       -4.695   6.925   0.920  0.00  0.00    +0.092 A 
ATOM     18  C   LIG    1       -3.362   7.105   0.601  0.00  0.00    +0.132 A 
ATOM     19  C   LIG    1       -2.566   6.013   0.203  0.00  0.00    +0.072 A 
ATOM     20  C   LIG    1       -1.136   6.193  -0.189  0.00  0.00    +0.201 C 
ATOM     21  O   LIG    1       -0.682   7.301  -0.485  0.00  0.00    -0.286 OA
ATOM     22  C   LIG    1       -3.174   4.713   0.096  0.00  0.00    +0.009 A 
ATOM     23  C   LIG    1       -4.395   2.165  -0.238  0.00  0.00    +0.009 A 
ATOM     24  C   LIG    1       -2.972   2.267  -0.130  0.00  0.00    +0.000 A 
ATOM     25  C   LIG    1        1.282   0.203   1.432  0.00  0.00    +0.044 C 
ATOM     26  C   LIG    1       -2.158   1.097  -0.027  0.00  0.00    +0.006 A 
ATOM     27  C   LIG    1        1.239   2.609  -0.599  0.00  0.00    -0.039 A 
ATOM     28  C   LIG    1        1.824   3.863  -0.657  0.00  0.00    +0.050 A 
ATOM     29  C   LIG    1        1.091   5.013  -0.438  0.00  0.00    +0.129 A 
ATOM     30  C   LIG    1        2.063   1.454  -1.164  0.00  0.00    +0.044 C 
ATOM     31  C   LIG    1       -0.303   4.951  -0.236  0.00  0.00    +0.072 A 
ATOM     32  C   LIG    1       -2.359   3.551  -0.074  0.00  0.00    +0.000 A 
ENDROOT
BRANCH   6  33
ATOM     33  O   LIG    1       -2.471  -2.604   0.361  0.00  0.00    -0.506 OA
ATOM     34  H   LIG    1       -1.818  -3.247   0.645  0.00  0.00    +0.292 HD
ENDBRANCH   6  33
BRANCH  11  35
ATOM     35  O   LIG    1       -7.102  -0.362  -0.776  0.00  0.00    -0.506 OA
ATOM     36  H   LIG    1       -8.043  -0.228  -0.910  0.00  0.00    +0.292 HD
ENDBRANCH  11  35
BRANCH  13  37
ATOM     37  O   LIG    1       -7.391   4.283  -0.856  0.00  0.00    -0.506 OA
ATOM     38  H   LIG    1       -8.275   4.016  -1.115  0.00  0.00    +0.292 HD
ENDBRANCH  13  37
BRANCH  18  39
ATOM     39  O   LIG    1       -2.869   8.378   0.760  0.00  0.00    -0.506 OA
ATOM     40  H   LIG    1       -3.536   9.003   1.052  0.00  0.00    +0.292 HD
ENDBRANCH  18  39
BRANCH  16  41
ATOM     41  O   LIG    1       -6.580   5.605   1.286  0.00  0.00    -0.506 OA
ATOM     42  H   LIG    1       -6.896   6.438   1.644  0.00  0.00    +0.292 HD
ENDBRANCH  16  41
BRANCH  29  43
ATOM     43  O   LIG    1        1.796   6.192  -0.491  0.00  0.00    -0.506 OA
ATOM     44  H   LIG    1        2.731   6.063  -0.664  0.00  0.00    +0.292 HD
ENDBRANCH  29  43
TORSDOF 6
