REMARK  Name = DB13267
REMARK                            x       y       z     vdW  Elec       q    Type
REMARK                         _______ _______ _______ _____ _____    ______ ____
ROOT
ATOM      1  C   LIG    1        1.704   0.020   0.309  0.00  0.00    +0.162 C 
ENDROOT
BRANCH   1   2
ATOM      2  S   LIG    1       -0.062   0.219   0.676  0.00  0.00    -0.125 S 
BRANCH   2   3
ATOM      3  C   LIG    1       -0.414   1.772  -0.196  0.00  0.00    +0.191 C 
BRANCH   3   4
ATOM      4  C   LIG    1       -1.877   2.186  -0.059  0.00  0.00    +0.315 C 
ATOM      5  O   LIG    1       -2.706   2.034  -0.954  0.00  0.00    -0.250 OA
BRANCH   4   6
ATOM      6  O   LIG    1       -2.139   2.725   1.166  0.00  0.00    -0.480 OA
ATOM      7  H   LIG    1       -3.059   2.980   1.264  0.00  0.00    +0.295 HD
ENDBRANCH   4   6
ENDBRANCH   3   4
ENDBRANCH   2   3
ENDBRANCH   1   2
BRANCH   1   8
ATOM      8  S   LIG    1        2.764   0.776   1.574  0.00  0.00    -0.125 S 
BRANCH   8   9
ATOM      9  C   LIG    1        3.486   2.166   0.646  0.00  0.00    +0.191 C 
BRANCH   9  10
ATOM     10  C   LIG    1        4.422   3.056   1.470  0.00  0.00    +0.315 C 
ATOM     11  O   LIG    1        4.720   2.854   2.647  0.00  0.00    -0.250 OA
BRANCH  10  12
ATOM     12  O   LIG    1        4.882   4.100   0.724  0.00  0.00    -0.480 OA
ATOM     13  H   LIG    1        5.470   4.673   1.222  0.00  0.00    +0.295 HD
ENDBRANCH  10  12
ENDBRANCH   9  10
ENDBRANCH   8   9
ENDBRANCH   1   8
BRANCH   1  14
ATOM     14  S   LIG    1        2.162  -1.705  -0.030  0.00  0.00    -0.125 S 
BRANCH  14  15
ATOM     15  C   LIG    1        1.458  -1.971  -1.688  0.00  0.00    +0.191 C 
BRANCH  15  16
ATOM     16  C   LIG    1        2.188  -1.196  -2.786  0.00  0.00    +0.315 C 
ATOM     17  O   LIG    1        1.737  -0.175  -3.301  0.00  0.00    -0.250 OA
BRANCH  16  18
ATOM     18  O   LIG    1        3.386  -1.767  -3.100  0.00  0.00    -0.480 OA
ATOM     19  H   LIG    1        3.852  -1.284  -3.786  0.00  0.00    +0.295 HD
ENDBRANCH  16  18
ENDBRANCH  15  16
ENDBRANCH  14  15
ENDBRANCH   1  14
TORSDOF 12
