REMARK  Name = DB13019
REMARK                            x       y       z     vdW  Elec       q    Type
REMARK                         _______ _______ _______ _____ _____    ______ ____
ROOT
ATOM      1  C   LIG    1        1.173   4.297  -3.377  0.00  0.00    +0.047 C 
ATOM      2  C   LIG    1       -0.135   4.387  -2.613  0.00  0.00    -0.013 A 
ATOM      3  C   LIG    1       -0.695   3.401  -1.762  0.00  0.00    +0.061 A 
ATOM      4  C   LIG    1       -0.209   2.047  -1.544  0.00  0.00    +0.249 C 
ATOM      5  N   LIG    1       -0.315   1.567  -0.264  0.00  0.00    -0.295 N 
ATOM      6  C   LIG    1       -0.739   2.368   0.902  0.00  0.00    +0.108 C 
ATOM      7  C   LIG    1       -2.246   2.717   0.977  0.00  0.00    +0.025 C 
ATOM      8  C   LIG    1       -2.891   3.249  -0.322  0.00  0.00    +0.055 C 
ATOM      9  O   LIG    1        0.229   1.418  -2.511  0.00  0.00    -0.270 OA
ATOM     10  C   LIG    1       -1.888   3.902  -1.246  0.00  0.00    +0.029 A 
ATOM     11  N   LIG    1       -2.001   5.187  -1.694  0.00  0.00    -0.358 N 
ATOM     12  H   LIG    1       -2.760   5.811  -1.456  0.00  0.00    +0.166 HD
ATOM     13  C   LIG    1       -0.958   5.515  -2.519  0.00  0.00    +0.044 A 
ENDROOT
BRANCH  13  14
ATOM     14  C   LIG    1       -0.817   6.854  -3.088  0.00  0.00    +0.039 C 
ATOM     15  C   LIG    1       -1.700   7.805  -3.483  0.00  0.00    +0.048 C 
ATOM     16  C   LIG    1       -3.156   7.689  -3.473  0.00  0.00    +0.249 C 
ATOM     17  O   LIG    1       -3.869   6.747  -3.134  0.00  0.00    -0.270 OA
ATOM     18  N   LIG    1       -3.622   8.863  -3.939  0.00  0.00    -0.281 N 
ATOM     19  H   LIG    1       -4.606   9.064  -4.044  0.00  0.00    +0.155 HD
ATOM     20  C   LIG    1       -2.619   9.740  -4.275  0.00  0.00    +0.042 A 
ATOM     21  C   LIG    1       -2.694  11.033  -4.790  0.00  0.00    +0.027 A 
ATOM     22  C   LIG    1       -1.505  11.720  -5.051  0.00  0.00    +0.040 A 
ATOM     23  C   LIG    1       -0.271  11.113  -4.799  0.00  0.00    +0.124 A 
ATOM     24  F   LIG    1        0.876  11.783  -5.053  0.00  0.00    -0.205 F 
ATOM     25  C   LIG    1       -0.219   9.814  -4.282  0.00  0.00    +0.048 A 
ATOM     26  C   LIG    1       -1.411   9.132  -4.021  0.00  0.00    +0.011 A 
ENDBRANCH  13  14
BRANCH   5  27
ATOM     27  C   LIG    1        0.101   0.179  -0.003  0.00  0.00    +0.140 C 
BRANCH  27  28
ATOM     28  C   LIG    1        1.630  -0.029   0.098  0.00  0.00    +0.146 C 
BRANCH  28  29
ATOM     29  O   LIG    1        1.865  -1.420   0.209  0.00  0.00    -0.389 OA
ATOM     30  H   LIG    1        2.808  -1.557   0.330  0.00  0.00    +0.210 HD
ENDBRANCH  28  29
BRANCH  28  31
ATOM     31  C   LIG    1        2.259   0.715   1.304  0.00  0.00    +0.117 C 
BRANCH  31  32
ATOM     32  N   LIG    1        3.703   0.504   1.474  0.00  0.00    -0.296 NA
ATOM     33  C   LIG    1        4.500   1.023   0.351  0.00  0.00    +0.112 C 
ATOM     34  C   LIG    1        6.015   0.889   0.614  0.00  0.00    +0.175 C 
ATOM     35  O   LIG    1        6.356   1.501   1.853  0.00  0.00    -0.377 OA
ATOM     36  C   LIG    1        5.671   0.912   2.952  0.00  0.00    +0.175 C 
ATOM     37  C   LIG    1        4.146   1.056   2.761  0.00  0.00    +0.112 C 
ENDBRANCH  31  32
ENDBRANCH  28  31
ENDBRANCH  27  28
ENDBRANCH   5  27
TORSDOF 6
