REMARK  Name = DB13154
REMARK                            x       y       z     vdW  Elec       q    Type
REMARK                         _______ _______ _______ _____ _____    ______ ____
ROOT
ATOM      1  C   LIG    1        1.376  -0.001   0.000  0.00  0.00    +0.117 A 
ATOM      2  C   LIG    1        2.071   1.208   0.000  0.00  0.00    +0.047 A 
ATOM      3  C   LIG    1        3.464   1.204   0.000  0.00  0.00    +0.023 A 
ATOM      4  C   LIG    1        4.152  -0.010   0.000  0.00  0.00    +0.041 A 
ATOM      5 CL   LIG    1        5.878  -0.015   0.000  0.00  0.00    -0.084 Cl
ATOM      6  C   LIG    1        3.456  -1.219   0.000  0.00  0.00    +0.023 A 
ATOM      7  C   LIG    1        2.063  -1.214   0.000  0.00  0.00    +0.047 A 
ENDROOT
BRANCH   1   8
ATOM      8  O   LIG    1        0.006   0.002   0.000  0.00  0.00    -0.507 OA
ATOM      9  H   LIG    1       -0.366   0.886   0.000  0.00  0.00    +0.292 HD
ENDBRANCH   1   8
TORSDOF 1
