REMARK  Name = DB13074
REMARK                            x       y       z     vdW  Elec       q    Type
REMARK                         _______ _______ _______ _____ _____    ______ ____
ROOT
ATOM      1  C   LIG    1        1.133   0.350   0.041  0.00  0.00    +0.163 C 
ENDROOT
BRANCH   1   3
ATOM      2  C   LIG    1       -1.360   0.168   0.215  0.00  0.00    +0.233 C 
ATOM      3  N   LIG    1       -0.143  -0.368  -0.005  0.00  0.00    -0.302 N 
ATOM      4  H   LIG    1       -0.083  -1.353  -0.223  0.00  0.00    +0.150 HD
ATOM      5  O   LIG    1       -1.497   1.364   0.480  0.00  0.00    -0.274 OA
BRANCH   2   7
ATOM      6  C   LIG    1       -3.570  -0.537   1.306  0.00  0.00    +0.037 C 
ATOM      7  C   LIG    1       -2.626  -0.736   0.097  0.00  0.00    +0.088 C 
ATOM      8  C   LIG    1       -3.363  -0.435  -1.227  0.00  0.00    +0.037 C 
BRANCH   7   9
ATOM      9  N   LIG    1       -2.261  -2.151   0.072  0.00  0.00    -0.318 NA
ATOM     10  H   LIG    1       -2.635  -2.586  -0.759  0.00  0.00    +0.119 HD
ATOM     11  H   LIG    1       -2.667  -2.623   0.867  0.00  0.00    +0.119 HD
ENDBRANCH   7   9
ENDBRANCH   2   7
ENDBRANCH   1   3
BRANCH   1  12
ATOM     12  C   LIG    1        1.605   0.607   1.481  0.00  0.00    +0.235 C 
ATOM     13  N   LIG    1        2.402   1.676   1.644  0.00  0.00    -0.295 N 
ATOM     14  H   LIG    1        2.659   2.213   0.828  0.00  0.00    +0.151 HD
ATOM     15  O   LIG    1        1.278  -0.162   2.387  0.00  0.00    -0.274 OA
BRANCH  13  16
ATOM     16  C   LIG    1        3.047   2.064   2.901  0.00  0.00    +0.164 C 
BRANCH  16  17
ATOM     17  N   LIG    1        4.193   1.218   3.269  0.00  0.00    -0.299 N 
ATOM     18  H   LIG    1        4.074   0.662   4.103  0.00  0.00    +0.150 HD
ATOM     19  C   LIG    1        5.338   1.077   2.576  0.00  0.00    +0.326 C 
ATOM     20  O   LIG    1        5.596   1.650   1.518  0.00  0.00    -0.279 OA
ENDBRANCH  16  17
BRANCH  16  21
ATOM     21  C   LIG    1        3.353   3.586   2.914  0.00  0.00    +0.079 C 
BRANCH  21  22
ATOM     22  C   LIG    1        3.878   4.137   4.233  0.00  0.00    -0.019 A 
ATOM     23  C   LIG    1        4.503   5.423   4.417  0.00  0.00    +0.003 A 
ATOM     24  C   LIG    1        4.817   6.483   3.550  0.00  0.00    +0.010 A 
ATOM     25  C   LIG    1        5.443   7.618   4.061  0.00  0.00    +0.001 A 
ATOM     26  C   LIG    1        5.760   7.718   5.413  0.00  0.00    +0.002 A 
ATOM     27  C   LIG    1        5.468   6.694   6.314  0.00  0.00    +0.026 A 
ATOM     28  C   LIG    1        4.839   5.555   5.800  0.00  0.00    +0.047 A 
ATOM     29  N   LIG    1        4.424   4.397   6.416  0.00  0.00    -0.360 N 
ATOM     30  H   LIG    1        4.502   4.156   7.394  0.00  0.00    +0.165 HD
ATOM     31  C   LIG    1        3.850   3.562   5.494  0.00  0.00    +0.087 A 
ENDBRANCH  21  22
ENDBRANCH  16  21
ENDBRANCH  13  16
ENDBRANCH   1  12
BRANCH   1  32
ATOM     32  C   LIG    1        2.189  -0.456  -0.742  0.00  0.00    +0.069 C 
BRANCH  32  33
ATOM     33  C   LIG    1        1.846  -0.754  -2.173  0.00  0.00    -0.020 A 
ATOM     34  C   LIG    1        1.069  -1.867  -2.715  0.00  0.00    +0.003 A 
ATOM     35  C   LIG    1        0.448  -3.011  -2.158  0.00  0.00    +0.010 A 
ATOM     36  C   LIG    1       -0.256  -3.928  -2.965  0.00  0.00    +0.001 A 
ATOM     37  C   LIG    1       -0.354  -3.724  -4.355  0.00  0.00    +0.002 A 
ATOM     38  C   LIG    1        0.251  -2.598  -4.943  0.00  0.00    +0.026 A 
ATOM     39  C   LIG    1        0.947  -1.689  -4.127  0.00  0.00    +0.047 A 
ATOM     40  N   LIG    1        1.621  -0.513  -4.381  0.00  0.00    -0.360 N 
ATOM     41  H   LIG    1        1.729  -0.080  -5.287  0.00  0.00    +0.165 HD
ATOM     42  C   LIG    1        2.137   0.041  -3.228  0.00  0.00    +0.087 A 
ENDBRANCH  32  33
ENDBRANCH   1  32
TORSDOF 10
