REMARK  Name = DB13972
REMARK                            x       y       z     vdW  Elec       q    Type
REMARK                         _______ _______ _______ _____ _____    ______ ____
ROOT
ATOM      1  CA  MET A  1       -0.081   0.104  -0.048  0.00  0.00    +0.161 C 
ENDROOT
BRANCH   1   2
ATOM      2  N   MET A  1       -0.533   1.504  -0.011  0.00  0.00    -0.318 NA
ATOM      3  H1  MET A  1       -0.098   1.995   0.757  0.00  0.00    +0.119 HD
ATOM      4  H2  MET A  1       -1.527   1.549   0.164  0.00  0.00    +0.119 HD
ENDBRANCH   1   2
BRANCH   1   6
ATOM      5  O   MET A  1       -0.502  -0.176  -2.436  0.00  0.00    -0.249 OA
ATOM      6  C   MET A  1       -0.734  -0.544  -1.285  0.00  0.00    +0.322 C 
BRANCH   6   7
ATOM      7  OXT MET A  1       -1.572  -1.563  -0.933  0.00  0.00    -0.480 OA
ATOM      8  HXT MET A  1       -1.984  -1.973  -1.696  0.00  0.00    +0.295 HD
ENDBRANCH   6   7
ENDBRANCH   1   6
BRANCH   1   9
ATOM      9  CB  MET A  1        1.463  -0.006  -0.044  0.00  0.00    +0.040 C 
BRANCH   9  10
ATOM     10  CG  MET A  1        2.010  -1.445  -0.039  0.00  0.00    +0.071 C 
BRANCH  10  11
ATOM     11  SD  MET A  1        3.813  -1.543   0.108  0.00  0.00    -0.164 S 
ATOM     12  CE  MET A  1        4.021  -3.342   0.089  0.00  0.00    +0.084 C 
ENDBRANCH  10  11
ENDBRANCH   9  10
ENDBRANCH   1   9
TORSDOF 6
