REMARK  Name = DB13005
REMARK                            x       y       z     vdW  Elec       q    Type
REMARK                         _______ _______ _______ _____ _____    ______ ____
ROOT
ATOM      1  N   LIG    1        3.277   0.918  -0.524  0.00  0.00    -0.254 N 
ATOM      2  H   LIG    1        3.405   0.443   0.357  0.00  0.00    +0.158 HD
ATOM      3  C   LIG    1        2.017   1.122  -0.954  0.00  0.00    +0.309 C 
ATOM      4  O   LIG    1        1.705   1.686  -2.006  0.00  0.00    -0.252 OA
ATOM      5  N   LIG    1        1.132   0.624  -0.069  0.00  0.00    -0.267 N 
ATOM      6  H   LIG    1        1.486   0.071   0.698  0.00  0.00    +0.156 HD
ENDROOT
BRANCH   5   7
ATOM      7  C   LIG    1       -0.262   0.675  -0.205  0.00  0.00    +0.070 A 
ATOM      8  C   LIG    1       -0.970  -0.528  -0.139  0.00  0.00    +0.030 A 
ATOM      9  C   LIG    1       -2.362  -0.529  -0.228  0.00  0.00    +0.048 A 
ATOM     10  C   LIG    1       -3.058   0.675  -0.360  0.00  0.00    +0.131 A 
ATOM     11  C   LIG    1       -2.355   1.881  -0.408  0.00  0.00    +0.086 A 
ATOM     12  C   LIG    1       -0.962   1.889  -0.320  0.00  0.00    +0.148 A 
ATOM     13  F   LIG    1       -0.309   3.075  -0.329  0.00  0.00    -0.203 F 
BRANCH  10  14
ATOM     14  O   LIG    1       -4.429   0.678  -0.439  0.00  0.00    -0.456 OA
BRANCH  14  15
ATOM     15  C   LIG    1       -5.206   0.647   0.703  0.00  0.00    +0.132 A 
ATOM     16  C   LIG    1       -4.690   0.631   2.012  0.00  0.00    +0.079 A 
ATOM     17  C   LIG    1       -5.569   0.601   3.107  0.00  0.00    +0.129 A 
ATOM     18  N   LIG    1       -6.923   0.590   2.927  0.00  0.00    -0.250 NA
ATOM     19  C   LIG    1       -7.412   0.607   1.662  0.00  0.00    +0.115 A 
ATOM     20  C   LIG    1       -6.592   0.635   0.536  0.00  0.00    +0.066 A 
BRANCH  17  21
ATOM     21  C   LIG    1       -5.028   0.581   4.523  0.00  0.00    +0.262 C 
ATOM     22  O   LIG    1       -3.812   0.588   4.730  0.00  0.00    -0.269 OA
ATOM     23  N   LIG    1       -5.935   0.559   5.520  0.00  0.00    -0.313 N 
ATOM     24  H   LIG    1       -6.916   0.579   5.281  0.00  0.00    +0.149 HD
ATOM     25  C   LIG    1       -5.609   0.532   6.941  0.00  0.00    +0.128 C 
ENDBRANCH  17  21
ENDBRANCH  14  15
ENDBRANCH  10  14
ENDBRANCH   5   7
BRANCH   1  27
ATOM     26  N   LIG    1        5.692   1.104  -0.656  0.00  0.00    -0.218 N 
ATOM     27  C   LIG    1        4.433   1.324  -1.175  0.00  0.00    +0.130 A 
ATOM     28  C   LIG    1        4.664   1.968  -2.384  0.00  0.00    +0.069 A 
ATOM     29  C   LIG    1        6.054   2.096  -2.522  0.00  0.00    +0.071 A 
ATOM     30  N   LIG    1        6.655   1.565  -1.475  0.00  0.00    -0.169 NA
BRANCH  26  37
ATOM     31  N   LIG    1        7.170  -1.331   4.164  0.00  0.00    -0.255 NA
ATOM     32  C   LIG    1        6.561  -0.962   5.317  0.00  0.00    +0.111 A 
ATOM     33  C   LIG    1        5.567   0.010   5.386  0.00  0.00    +0.020 A 
ATOM     34  C   LIG    1        5.166   0.646   4.213  0.00  0.00    +0.011 A 
ATOM     35  C   LIG    1        5.777   0.289   2.985  0.00  0.00    +0.002 A 
ATOM     36  C   LIG    1        5.422   0.890   1.753  0.00  0.00    +0.038 A 
ATOM     37  C   LIG    1        6.056   0.500   0.570  0.00  0.00    +0.068 A 
ATOM     38  C   LIG    1        7.051  -0.482   0.598  0.00  0.00    +0.030 A 
ATOM     39  C   LIG    1        7.419  -1.091   1.796  0.00  0.00    +0.030 A 
ATOM     40  C   LIG    1        6.790  -0.718   3.007  0.00  0.00    +0.071 A 
ENDBRANCH  26  37
BRANCH  29  41
ATOM     41  C   LIG    1        6.838   2.736  -3.679  0.00  0.00    +0.006 C 
ATOM     42  C   LIG    1        6.299   4.163  -3.934  0.00  0.00    +0.017 C 
ATOM     43  C   LIG    1        8.358   2.839  -3.385  0.00  0.00    +0.017 C 
ATOM     44  C   LIG    1        6.638   1.884  -4.952  0.00  0.00    +0.017 C 
ENDBRANCH  29  41
ENDBRANCH   1  27
TORSDOF 7
