REMARK  Name = DB13874
REMARK                            x       y       z     vdW  Elec       q    Type
REMARK                         _______ _______ _______ _____ _____    ______ ____
ROOT
ATOM      1  C   LIG    1        1.386   0.067  -0.173  0.00  0.00    +0.220 A 
ATOM      2  N   LIG    1        1.986  -1.122  -0.441  0.00  0.00    -0.181 NA
ATOM      3  C   LIG    1        3.304  -1.059  -0.762  0.00  0.00    +0.224 A 
ATOM      4  N   LIG    1        4.018   0.094  -0.828  0.00  0.00    -0.193 NA
ATOM      5  C   LIG    1        3.337   1.241  -0.545  0.00  0.00    +0.185 A 
ATOM      6  N   LIG    1        2.017   1.274  -0.209  0.00  0.00    -0.193 NA
ENDROOT
BRANCH   5   7
ATOM      7  C   LIG    1        4.076   2.548  -0.608  0.00  0.00    +0.109 A 
ATOM      8  C   LIG    1        3.454   3.780  -0.342  0.00  0.00    +0.031 A 
ATOM      9  C   LIG    1        4.200   4.957  -0.418  0.00  0.00    +0.004 A 
ATOM     10  C   LIG    1        5.551   4.896  -0.757  0.00  0.00    +0.032 A 
ATOM     11  C   LIG    1        6.121   3.645  -1.013  0.00  0.00    +0.144 A 
ATOM     12  N   LIG    1        5.400   2.494  -0.940  0.00  0.00    -0.240 NA
BRANCH  11  13
ATOM     13  C   LIG    1        7.592   3.481  -1.391  0.00  0.00    +0.434 C 
ATOM     14  F   LIG    1        7.690   2.913  -2.593  0.00  0.00    -0.164 F 
ATOM     15  F   LIG    1        8.206   2.702  -0.498  0.00  0.00    -0.164 F 
ATOM     16  F   LIG    1        8.232   4.651  -1.430  0.00  0.00    -0.164 F 
ENDBRANCH  11  13
ENDBRANCH   5   7
BRANCH   1  17
ATOM     17  N   LIG    1        0.023  -0.004   0.154  0.00  0.00    -0.311 N 
ATOM     18  H   LIG    1       -0.437  -0.899   0.074  0.00  0.00    +0.149 HD
BRANCH  17  19
ATOM     19  C   LIG    1       -0.811   1.185   0.359  0.00  0.00    +0.138 C 
BRANCH  19  21
ATOM     20  C   LIG    1       -2.569   0.638  -1.443  0.00  0.00    +0.042 C 
ATOM     21  C   LIG    1       -1.591   1.694  -0.885  0.00  0.00    +0.076 C 
ATOM     22  C   LIG    1       -2.218   3.081  -0.652  0.00  0.00    +0.042 C 
BRANCH  21  23
ATOM     23  O   LIG    1       -0.664   1.865  -1.946  0.00  0.00    -0.388 OA
ATOM     24  H   LIG    1        0.023   2.469  -1.655  0.00  0.00    +0.210 HD
ENDBRANCH  21  23
ENDBRANCH  19  21
ENDBRANCH  17  19
ENDBRANCH   1  17
BRANCH   3  25
ATOM     25  N   LIG    1        3.915  -2.293  -1.031  0.00  0.00    -0.283 N 
ATOM     26  H   LIG    1        3.272  -3.067  -0.944  0.00  0.00    +0.155 HD
BRANCH  25  27
ATOM     27  C   LIG    1        5.217  -2.690  -1.389  0.00  0.00    +0.037 A 
ATOM     28  C   LIG    1        5.441  -4.061  -1.559  0.00  0.00    +0.043 A 
ATOM     29  C   LIG    1        6.715  -4.505  -1.913  0.00  0.00    +0.113 A 
ATOM     30  N   LIG    1        7.761  -3.665  -2.104  0.00  0.00    -0.251 NA
ATOM     31  C   LIG    1        7.548  -2.331  -1.940  0.00  0.00    +0.145 A 
ATOM     32  C   LIG    1        6.296  -1.811  -1.585  0.00  0.00    +0.055 A 
BRANCH  31  33
ATOM     33  C   LIG    1        8.764  -1.434  -2.168  0.00  0.00    +0.434 C 
ATOM     34  F   LIG    1        9.184  -1.556  -3.428  0.00  0.00    -0.164 F 
ATOM     35  F   LIG    1        9.755  -1.794  -1.351  0.00  0.00    -0.164 F 
ATOM     36  F   LIG    1        8.492  -0.147  -1.944  0.00  0.00    -0.164 F 
ENDBRANCH  31  33
ENDBRANCH  25  27
ENDBRANCH   3  25
TORSDOF 9
