REMARK  Name = DB13323
REMARK                            x       y       z     vdW  Elec       q    Type
REMARK                         _______ _______ _______ _____ _____    ______ ____
ROOT
ATOM      1  C   LIG    1        1.064  -0.037   0.655  0.00  0.00    +0.111 C 
ATOM      2 CL   LIG    1        0.573  -1.085   1.991  0.00  0.00    -0.090 Cl
ATOM      3  C   LIG    1        0.190   0.573  -0.163  0.00  0.00    +0.118 C 
ATOM      4 CL   LIG    1       -1.562   0.400  -0.004  0.00  0.00    -0.070 Cl
ATOM      5 CL   LIG    1        0.736   1.610  -1.483  0.00  0.00    -0.070 Cl
ENDROOT
TORSDOF 0
