REMARK  Name = DB13135
REMARK                            x       y       z     vdW  Elec       q    Type
REMARK                         _______ _______ _______ _____ _____    ______ ____
ROOT
ATOM      1  N   LIG    1        2.697  -1.986  -0.817  0.00  0.00    -0.184 N 
ATOM      2  C   LIG    1        2.057  -0.762  -0.649  0.00  0.00    +0.221 A 
ATOM      3  N   LIG    1        2.831   0.183  -0.182  0.00  0.00    -0.218 NA
ATOM      4  C   LIG    1        4.055  -0.403  -0.054  0.00  0.00    +0.095 A 
ATOM      5  C   LIG    1        5.252   0.172   0.396  0.00  0.00    +0.075 A 
ATOM      6  C   LIG    1        6.405  -0.628   0.448  0.00  0.00    +0.122 A 
ATOM      7  C   LIG    1        6.339  -1.966   0.055  0.00  0.00    +0.048 A 
ATOM      8  C   LIG    1        5.162  -2.566  -0.397  0.00  0.00    +0.033 A 
ATOM      9  C   LIG    1        4.016  -1.763  -0.445  0.00  0.00    +0.093 A 
ENDROOT
BRANCH   1  10
ATOM     10  S   LIG    1        2.111  -3.323  -1.755  0.00  0.00    +0.086 S 
ATOM     11  O   LIG    1        0.676  -3.458  -1.480  0.00  0.00    -0.148 OA
ATOM     12  O   LIG    1        3.022  -4.445  -1.507  0.00  0.00    -0.148 OA
BRANCH  10  13
ATOM     13  C   LIG    1        2.326  -2.793  -3.449  0.00  0.00    +0.111 A 
ATOM     14  C   LIG    1        3.578  -2.915  -4.051  0.00  0.00    +0.032 A 
ATOM     15  C   LIG    1        3.760  -2.491  -5.364  0.00  0.00    +0.047 A 
ATOM     16  C   LIG    1        2.687  -1.940  -6.084  0.00  0.00    +0.121 A 
ATOM     17  C   LIG    1        1.441  -1.820  -5.467  0.00  0.00    +0.047 A 
ATOM     18  C   LIG    1        1.256  -2.243  -4.155  0.00  0.00    +0.032 A 
BRANCH  16  19
ATOM     19  O   LIG    1        2.773  -1.495  -7.388  0.00  0.00    -0.481 OA
BRANCH  19  20
ATOM     20  C   LIG    1        4.018  -1.601  -8.088  0.00  0.00    +0.349 C 
BRANCH  20  21
ATOM     21  C   LIG    1        3.868  -1.059  -9.526  0.00  0.00    +0.343 C 
ATOM     22  O   LIG    1        4.897  -1.100 -10.238  0.00  0.00    -0.247 OA
BRANCH  21  23
ATOM     23  O   LIG    1        2.763  -0.612  -9.916  0.00  0.00    -0.478 OA
ATOM     24  H   LIG    1        2.527   0.276  -9.734  0.00  0.00    +0.295 HD
ENDBRANCH  21  23
ENDBRANCH  20  21
ENDBRANCH  19  20
ENDBRANCH  16  19
ENDBRANCH  10  13
ENDBRANCH   1  10
BRANCH   6  25
ATOM     25  O   LIG    1        7.640  -0.178   0.874  0.00  0.00    -0.495 OA
ATOM     26  C   LIG    1        7.783   1.175   1.293  0.00  0.00    +0.277 C 
ENDBRANCH   6  25
BRANCH   2  27
ATOM     27  S   LIG    1        0.254  -0.538  -0.972  0.00  0.00    +0.093 S 
ATOM     28  O   LIG    1        0.122   0.897  -1.485  0.00  0.00    -0.249 OA
BRANCH  27  29
ATOM     29  C   LIG    1       -0.325  -0.548   0.796  0.00  0.00    +0.136 C 
BRANCH  29  30
ATOM     30  C   LIG    1        0.061  -1.844   1.504  0.00  0.00    +0.060 C 
ATOM     31  C   LIG    1       -0.684  -3.037   1.432  0.00  0.00    +0.031 C 
ATOM     32  C   LIG    1       -1.966  -3.106   0.607  0.00  0.00    +0.017 C 
ATOM     33  C   LIG    1       -0.201  -4.183   2.098  0.00  0.00    +0.114 C 
ATOM     34  C   LIG    1        1.017  -4.117   2.797  0.00  0.00    +0.027 C 
ATOM     35  C   LIG    1        1.589  -5.342   3.492  0.00  0.00    +0.016 C 
ATOM     36  C   LIG    1        1.712  -2.907   2.842  0.00  0.00    +0.081 C 
ATOM     37  N   LIG    1        1.211  -1.832   2.210  0.00  0.00    -0.303 NA
ATOM     38  H   LIG    1        1.736  -0.970   2.248  0.00  0.00    +0.123 HD
BRANCH  33  39
ATOM     39  O   LIG    1       -0.884  -5.375   2.052  0.00  0.00    -0.372 OA
ATOM     40  C   LIG    1       -1.955  -5.475   2.984  0.00  0.00    +0.194 C 
ENDBRANCH  33  39
ENDBRANCH  29  30
ENDBRANCH  27  29
ENDBRANCH   2  27
TORSDOF 11
