REMARK  Name = DB13098
REMARK                            x       y       z     vdW  Elec       q    Type
REMARK                         _______ _______ _______ _____ _____    ______ ____
ROOT
ATOM      1  C   LIG    1        2.172  -2.195  -1.249  0.00  0.00    +0.002 C 
ENDROOT
BRANCH   1   2
ATOM      2  C   LIG    1        2.443  -1.179  -0.117  0.00  0.00    +0.029 C 
BRANCH   2   3
ATOM      3  C   LIG    1        1.801   0.210  -0.338  0.00  0.00    +0.098 C 
BRANCH   3   4
ATOM      4  O   LIG    1        2.250   1.053   0.709  0.00  0.00    -0.394 OA
ATOM      5  H   LIG    1        1.979   1.954   0.523  0.00  0.00    +0.210 HD
ENDBRANCH   3   4
BRANCH   3   6
ATOM      6  C   LIG    1        0.253   0.146  -0.376  0.00  0.00    -0.051 C 
BRANCH   6   7
ATOM      7  N   LIG    1       -0.381   1.549  -0.446  0.00  0.00    +0.381 N 
ATOM      8  H   LIG    1       -0.075   2.082   0.356  0.00  0.00    -0.086 HD
ATOM      9  H   LIG    1       -0.056   2.019  -1.280  0.00  0.00    -0.086 HD
BRANCH   7  10
ATOM     10  C   LIG    1       -1.917   1.515  -0.454  0.00  0.00    -0.083 C 
BRANCH  10  11
ATOM     11  C   LIG    1       -2.466   2.949  -0.442  0.00  0.00    -0.019 C 
BRANCH  11  12
ATOM     12  C   LIG    1       -4.004   2.976  -0.406  0.00  0.00    -0.002 C 
BRANCH  12  13
ATOM     13  C   LIG    1       -4.586   4.402  -0.356  0.00  0.00    -0.000 C 
BRANCH  13  14
ATOM     14  C   LIG    1       -6.117   4.452  -0.182  0.00  0.00    -0.000 C 
BRANCH  14  15
ATOM     15  C   LIG    1       -6.912   3.902  -1.383  0.00  0.00    -0.000 C 
BRANCH  15  16
ATOM     16  C   LIG    1       -8.436   3.969  -1.177  0.00  0.00    -0.000 C 
BRANCH  16  17
ATOM     17  C   LIG    1       -9.225   3.431  -2.387  0.00  0.00    -0.000 C 
BRANCH  17  18
ATOM     18  C   LIG    1      -10.758   3.499  -2.232  0.00  0.00    -0.000 C 
BRANCH  18  19
ATOM     19  C   LIG    1      -11.330   2.544  -1.167  0.00  0.00    -0.000 C 
BRANCH  19  21
ATOM     20  C   LIG    1      -13.438   1.598  -0.060  0.00  0.00    +0.004 C 
ATOM     21  C   LIG    1      -12.868   2.555  -1.116  0.00  0.00    -0.003 C 
ENDBRANCH  19  21
ENDBRANCH  18  19
ENDBRANCH  17  18
ENDBRANCH  16  17
ENDBRANCH  15  16
ENDBRANCH  14  15
ENDBRANCH  13  14
ENDBRANCH  12  13
ENDBRANCH  11  12
ENDBRANCH  10  11
ENDBRANCH   7  10
ENDBRANCH   6   7
ENDBRANCH   3   6
ENDBRANCH   2   3
ENDBRANCH   1   2
BRANCH   1  22
ATOM     22  C   LIG    1        2.805  -3.582  -1.021  0.00  0.00    +0.000 C 
BRANCH  22  23
ATOM     23  C   LIG    1        2.181  -4.371   0.147  0.00  0.00    +0.000 C 
BRANCH  23  24
ATOM     24  C   LIG    1        2.714  -5.810   0.261  0.00  0.00    +0.000 C 
BRANCH  24  25
ATOM     25  C   LIG    1        2.078  -6.585   1.429  0.00  0.00    +0.000 C 
BRANCH  25  26
ATOM     26  C   LIG    1        2.561  -8.043   1.525  0.00  0.00    +0.002 C 
BRANCH  26  27
ATOM     27  C   LIG    1        1.917  -8.803   2.697  0.00  0.00    +0.022 C 
BRANCH  27  28
ATOM     28  C   LIG    1        2.387 -10.269   2.785  0.00  0.00    +0.130 C 
BRANCH  28  29
ATOM     29  N   LIG    1        1.764 -11.027   3.904  0.00  0.00    -0.259 N 
ATOM     30  C   LIG    1        0.529 -11.605   3.611  0.00  0.00    +0.333 A 
ATOM     31  O   LIG    1       -0.016 -11.519   2.504  0.00  0.00    -0.246 OA
ATOM     32  N   LIG    1       -0.057 -12.282   4.656  0.00  0.00    -0.280 N 
ATOM     33  C   LIG    1       -1.380 -12.891   4.445  0.00  0.00    +0.155 C 
ATOM     34  C   LIG    1        0.565 -12.410   5.891  0.00  0.00    +0.168 A 
ATOM     35  N   LIG    1        0.137 -13.051   6.968  0.00  0.00    -0.218 NA
ATOM     36  C   LIG    1        1.088 -12.867   7.853  0.00  0.00    +0.202 A 
ATOM     37  N   LIG    1        2.140 -12.114   7.386  0.00  0.00    -0.328 N 
ATOM     38  C   LIG    1        3.342 -11.740   8.114  0.00  0.00    +0.150 C 
ATOM     39  C   LIG    1        1.799 -11.812   6.087  0.00  0.00    +0.151 A 
ATOM     40  C   LIG    1        2.499 -11.042   5.082  0.00  0.00    +0.282 A 
ATOM     41  O   LIG    1        3.585 -10.478   5.237  0.00  0.00    -0.265 OA
ENDBRANCH  28  29
ENDBRANCH  27  28
ENDBRANCH  26  27
ENDBRANCH  25  26
ENDBRANCH  24  25
ENDBRANCH  23  24
ENDBRANCH  22  23
ENDBRANCH   1  22
TORSDOF 24
