REMARK  Name = DB13137
REMARK                            x       y       z     vdW  Elec       q    Type
REMARK                         _______ _______ _______ _____ _____    ______ ____
ROOT
ATOM      1  C   LIG    1        0.281   1.079  -0.051  0.00  0.00    +0.165 C 
ENDROOT
BRANCH   1   4
ATOM      2  N   LIG    1       -1.309   2.370  -1.400  0.00  0.00    -0.291 N 
ATOM      3  H   LIG    1       -1.709   1.462  -1.587  0.00  0.00    +0.154 HD
ATOM      4  C   LIG    1       -0.220   2.436  -0.609  0.00  0.00    +0.238 C 
ATOM      5  O   LIG    1        0.368   3.476  -0.301  0.00  0.00    -0.273 OA
BRANCH   2   7
ATOM      6  C   LIG    1       -2.965   3.349  -2.833  0.00  0.00    -0.008 C 
ATOM      7  C   LIG    1       -1.912   3.431  -2.001  0.00  0.00    +0.070 C 
BRANCH   6   8
ATOM      8  C   LIG    1       -3.680   2.072  -3.259  0.00  0.00    +0.073 C 
BRANCH   8   9
ATOM      9  C   LIG    1       -3.584   1.735  -4.766  0.00  0.00    +0.186 C 
BRANCH   9  10
ATOM     10  C   LIG    1       -2.134   1.509  -5.269  0.00  0.00    +0.072 C 
BRANCH  10  13
ATOM     11  C   LIG    1        0.886   1.459  -4.212  0.00  0.00    +0.035 C 
ATOM     12  C   LIG    1       -0.141   0.344  -4.128  0.00  0.00    -0.034 C 
ATOM     13  C   LIG    1       -1.408   0.358  -4.585  0.00  0.00    -0.028 C 
ENDBRANCH  10  13
ENDBRANCH   9  10
BRANCH   9  14
ATOM     14  O   LIG    1       -4.215   2.792  -5.496  0.00  0.00    -0.447 OA
BRANCH  14  15
ATOM     15  C   LIG    1       -4.718   2.607  -6.738  0.00  0.00    +0.398 C 
ATOM     16  N   LIG    1       -5.246   3.792  -7.197  0.00  0.00    -0.295 N 
ATOM     17  H   LIG    1       -5.664   3.824  -8.116  0.00  0.00    +0.148 HD
ATOM     18  H   LIG    1       -5.211   4.611  -6.609  0.00  0.00    +0.148 HD
ATOM     19  O   LIG    1       -4.710   1.546  -7.362  0.00  0.00    -0.227 OA
ENDBRANCH  14  15
ENDBRANCH   9  14
ENDBRANCH   8   9
ENDBRANCH   6   8
ENDBRANCH   2   7
ENDBRANCH   1   4
BRANCH   1  20
ATOM     20  N   LIG    1        1.694   0.935  -0.426  0.00  0.00    -0.300 N 
ATOM     21  H   LIG    1        2.275   1.734  -0.218  0.00  0.00    +0.150 HD
ATOM     22  C   LIG    1        2.250  -0.122  -1.046  0.00  0.00    +0.237 C 
ATOM     23  O   LIG    1        1.619  -1.136  -1.347  0.00  0.00    -0.271 OA
BRANCH  22  24
ATOM     24  C   LIG    1        3.666   0.064  -1.292  0.00  0.00    +0.067 C 
ATOM     25  C   LIG    1        4.470  -0.705  -2.062  0.00  0.00    +0.005 C 
BRANCH  25  26
ATOM     26  C   LIG    1        4.122  -1.884  -2.855  0.00  0.00    +0.000 C 
ATOM     27  C   LIG    1        5.007  -2.693  -3.478  0.00  0.00    +0.003 C 
BRANCH  27  28
ATOM     28  C   LIG    1        6.460  -2.578  -3.440  0.00  0.00    -0.054 C 
ATOM     29  C   LIG    1        7.193  -2.406  -4.762  0.00  0.00    +0.043 C 
ATOM     30  C   LIG    1        7.086  -2.571  -2.239  0.00  0.00    -0.017 C 
BRANCH  30  31
ATOM     31  C   LIG    1        8.573  -2.401  -1.941  0.00  0.00    +0.050 C 
ATOM     32  C   LIG    1        9.086  -3.471  -0.959  0.00  0.00    +0.015 C 
BRANCH  31  33
ATOM     33  C   LIG    1        8.918  -0.958  -1.483  0.00  0.00    +0.187 C 
ATOM     34  O   LIG    1        8.595  -0.042  -2.549  0.00  0.00    -0.455 OA
ATOM     35  C   LIG    1        8.628   1.317  -2.348  0.00  0.00    +0.374 C 
ATOM     36  O   LIG    1        8.634   2.005  -3.367  0.00  0.00    -0.242 OA
ATOM     37  C   LIG    1        8.596   1.776  -0.947  0.00  0.00    +0.200 C 
ATOM     38  C   LIG    1        8.400   0.930   0.079  0.00  0.00    +0.030 C 
ATOM     39  C   LIG    1        8.304  -0.571  -0.105  0.00  0.00    +0.076 C 
BRANCH  37  40
ATOM     40  O   LIG    1        8.622   3.117  -0.741  0.00  0.00    -0.489 OA
ATOM     41  C   LIG    1        9.880   3.752  -0.953  0.00  0.00    +0.277 C 
ENDBRANCH  37  40
ENDBRANCH  31  33
ENDBRANCH  30  31
ENDBRANCH  27  28
ENDBRANCH  25  26
ENDBRANCH  22  24
ENDBRANCH   1  20
BRANCH   1  42
ATOM     42  C   LIG    1        0.009   0.851   1.486  0.00  0.00    -0.011 C 
ATOM     43  C   LIG    1        0.837   1.815   2.379  0.00  0.00    +0.013 C 
ATOM     44  C   LIG    1       -1.493   1.027   1.831  0.00  0.00    +0.013 C 
ATOM     45  C   LIG    1        0.404  -0.597   1.881  0.00  0.00    +0.013 C 
ENDBRANCH   1  42
TORSDOF 16
