REMARK  Name = DB13952
REMARK                            x       y       z     vdW  Elec       q    Type
REMARK                         _______ _______ _______ _____ _____    ______ ____
ROOT
ATOM      1  C   LIG    1       -6.988  -0.164   1.497  0.00  0.00    -0.003 C 
ATOM      2  C   LIG    1       -6.485  -0.818   2.824  0.00  0.00    +0.014 C 
ATOM      3  C   LIG    1       -8.472   0.247   1.662  0.00  0.00    +0.121 C 
ATOM      4  C   LIG    1       -8.444   1.621   2.370  0.00  0.00    +0.032 C 
ATOM      5  C   LIG    1       -7.024   2.191   2.168  0.00  0.00    +0.007 C 
ATOM      6  C   LIG    1       -6.681  -1.073   0.277  0.00  0.00    +0.010 C 
ATOM      7  C   LIG    1       -5.154  -1.267   0.082  0.00  0.00    +0.009 C 
ATOM      8  C   LIG    1       -4.385   0.090  -0.028  0.00  0.00    +0.023 C 
ATOM      9  C   LIG    1       -2.850   0.009  -0.031  0.00  0.00    -0.041 A 
ATOM     10  C   LIG    1       -2.136  -1.197  -0.042  0.00  0.00    +0.008 A 
ATOM     11  C   LIG    1       -0.745  -1.212   0.021  0.00  0.00    +0.046 A 
ATOM     12  C   LIG    1       -0.037  -0.013   0.103  0.00  0.00    +0.132 A 
ATOM     13  C   LIG    1       -0.735   1.196   0.082  0.00  0.00    +0.050 A 
ATOM     14  C   LIG    1       -2.131   1.222   0.012  0.00  0.00    -0.040 A 
ATOM     15  C   LIG    1       -2.906   2.535  -0.040  0.00  0.00    +0.036 C 
ATOM     16  C   LIG    1       -4.123   2.527   0.918  0.00  0.00    +0.009 C 
ATOM     17  C   LIG    1       -4.835   1.151   1.030  0.00  0.00    +0.000 C 
ATOM     18  C   LIG    1       -6.375   1.219   1.176  0.00  0.00    +0.001 C 
ENDROOT
BRANCH   3  19
ATOM     19  O   LIG    1       -9.371  -0.696   2.214  0.00  0.00    -0.391 OA
ATOM     20  H   LIG    1       -9.518  -1.391   1.568  0.00  0.00    +0.210 HD
ENDBRANCH   3  19
BRANCH  12  21
ATOM     21  O   LIG    1        1.338  -0.024   0.157  0.00  0.00    -0.426 OA
BRANCH  21  22
ATOM     22  C   LIG    1        1.955  -0.002   1.370  0.00  0.00    +0.309 C 
ATOM     23  C   LIG    1        3.475  -0.004   1.248  0.00  0.00    +0.136 C 
ATOM     24  O   LIG    1        1.412   0.019   2.477  0.00  0.00    -0.251 OA
ENDBRANCH  21  22
ENDBRANCH  12  21
TORSDOF 3
