REMARK  Name = DB13018
REMARK                            x       y       z     vdW  Elec       q    Type
REMARK                         _______ _______ _______ _____ _____    ______ ____
ROOT
ATOM      1  C   LIG    1        0.891   0.201  -1.827  0.00  0.00    +0.051 C 
ATOM      2  C   LIG    1        1.140  -0.073  -0.347  0.00  0.00    +0.164 C 
ATOM      3  N   LIG    1        1.230   1.070   0.547  0.00  0.00    -0.296 N 
ATOM      4  H   LIG    1        1.955   1.766   0.456  0.00  0.00    +0.151 HD
ATOM      5  C   LIG    1        0.360   1.035   1.574  0.00  0.00    +0.232 C 
ATOM      6  C   LIG    1       -0.491  -0.230   1.386  0.00  0.00    +0.205 C 
ATOM      7  O   LIG    1        0.246   1.852   2.484  0.00  0.00    -0.274 OA
ATOM      8  N   LIG    1       -0.097  -0.679   0.066  0.00  0.00    -0.274 N 
ATOM      9  C   LIG    1       -0.988  -1.032  -0.885  0.00  0.00    +0.217 C 
ATOM     10  O   LIG    1       -2.144  -1.431  -0.752  0.00  0.00    -0.276 OA
ATOM     11  C   LIG    1       -0.300  -0.673  -2.201  0.00  0.00    +0.099 C 
ENDROOT
TORSDOF 0
