REMARK  Name = DB13114
REMARK                            x       y       z     vdW  Elec       q    Type
REMARK                         _______ _______ _______ _____ _____    ______ ____
ROOT
ATOM      1  C   LIG    1       -2.053   1.504  -0.203  0.00  0.00    -0.020 C 
ATOM      2  C   LIG    1       -2.723   2.505   0.422  0.00  0.00    -0.014 C 
ATOM      3  C   LIG    1       -4.215   2.504   0.429  0.00  0.00    -0.014 A 
ATOM      4  C   LIG    1       -5.006   2.787   1.575  0.00  0.00    -0.039 A 
ATOM      5  C   LIG    1       -4.444   3.179   2.949  0.00  0.00    +0.040 C 
ATOM      6  C   LIG    1       -2.949   2.999   3.261  0.00  0.00    +0.040 C 
ATOM      7  C   LIG    1       -2.047   3.874   2.409  0.00  0.00    -0.039 A 
ATOM      8  C   LIG    1       -1.318   4.936   2.958  0.00  0.00    +0.004 A 
ATOM      9  C   LIG    1       -0.549   5.769   2.147  0.00  0.00    +0.000 A 
ATOM     10  C   LIG    1       -0.509   5.552   0.773  0.00  0.00    +0.001 A 
ATOM     11  C   LIG    1       -1.231   4.500   0.216  0.00  0.00    +0.009 A 
ATOM     12  C   LIG    1       -6.402   2.741   1.460  0.00  0.00    +0.004 A 
ATOM     13  C   LIG    1       -7.028   2.413   0.262  0.00  0.00    +0.000 A 
ATOM     14  C   LIG    1       -6.260   2.126  -0.857  0.00  0.00    +0.001 A 
ATOM     15  C   LIG    1       -4.873   2.171  -0.770  0.00  0.00    +0.009 A 
ATOM     16  C   LIG    1       -1.998   3.648   1.024  0.00  0.00    -0.014 A 
ENDROOT
BRANCH   1  17
ATOM     17  C   LIG    1       -0.548   1.311  -0.329  0.00  0.00    +0.014 C 
BRANCH  17  18
ATOM     18  C   LIG    1       -0.061   0.040   0.406  0.00  0.00    -0.029 C 
BRANCH  18  20
ATOM     19  C   LIG    1        1.835  -1.327   1.200  0.00  0.00    -0.045 C 
ATOM     20  N   LIG    1        1.469  -0.103   0.377  0.00  0.00    +0.397 N 
ATOM     21  C   LIG    1        1.947  -0.345  -1.048  0.00  0.00    -0.045 C 
BRANCH  20  22
ATOM     22  O   LIG    1        2.075   0.993   0.898  0.00  0.00    -0.445 OA
ATOM     23  H   LIG    1        3.037   0.876   0.867  0.00  0.00    +0.186 HD
ENDBRANCH  20  22
ENDBRANCH  18  20
ENDBRANCH  17  18
ENDBRANCH   1  17
TORSDOF 4
