REMARK  Name = DB13029
REMARK                            x       y       z     vdW  Elec       q    Type
REMARK                         _______ _______ _______ _____ _____    ______ ____
ROOT
ATOM      1  N   LIG    1        1.379   0.111   0.472  0.00  0.00    -0.300 N 
ATOM      2  C   LIG    1        2.182  -0.704   1.318  0.00  0.00    +0.149 A 
ATOM      3  N   LIG    1        1.574  -1.489   2.255  0.00  0.00    -0.237 NA
ATOM      4  C   LIG    1        2.344  -2.258   3.060  0.00  0.00    +0.113 A 
ATOM      5  C   LIG    1        3.732  -2.278   2.979  0.00  0.00    +0.021 A 
ATOM      6  C   LIG    1        4.354  -1.469   2.028  0.00  0.00    +0.017 A 
ATOM      7  C   LIG    1        3.590  -0.656   1.174  0.00  0.00    +0.065 A 
ATOM      8  C   LIG    1        4.274   0.222   0.157  0.00  0.00    +0.203 A 
ATOM      9  O   LIG    1        5.503   0.229   0.043  0.00  0.00    -0.286 OA
ATOM     10  C   LIG    1        3.338   1.040  -0.656  0.00  0.00    +0.100 A 
ATOM     11  C   LIG    1        1.998   0.936  -0.458  0.00  0.00    +0.110 A 
ENDROOT
BRANCH   1  14
ATOM     12  C   LIG    1       -2.153   1.255   0.736  0.00  0.00    +0.003 A 
ATOM     13  C   LIG    1       -0.759   1.271   0.720  0.00  0.00    +0.026 A 
ATOM     14  C   LIG    1       -0.035   0.091   0.496  0.00  0.00    +0.049 A 
ATOM     15  C   LIG    1       -0.737  -1.103   0.278  0.00  0.00    +0.043 A 
ATOM     16  C   LIG    1       -2.134  -1.123   0.294  0.00  0.00    +0.027 A 
ATOM     17  C   LIG    1       -2.841   0.061   0.525  0.00  0.00    +0.017 A 
BRANCH  16  18
ATOM     18  C   LIG    1       -2.850  -2.370   0.074  0.00  0.00    -0.066 C 
ATOM     19  C   LIG    1       -3.446  -3.422  -0.100  0.00  0.00    -0.087 C 
BRANCH  19  20
ATOM     20  C   LIG    1       -4.154  -4.678  -0.294  0.00  0.00    +0.073 C 
ATOM     21  C   LIG    1       -3.532  -5.893   0.009  0.00  0.00    +0.125 C 
ATOM     22  N   LIG    1       -4.203  -7.051  -0.177  0.00  0.00    -0.180 NA
ATOM     23  C   LIG    1       -5.468  -7.094  -0.649  0.00  0.00    +0.108 C 
ATOM     24  C   LIG    1       -6.129  -5.905  -0.963  0.00  0.00    +0.020 C 
ATOM     25  C   LIG    1       -5.465  -4.689  -0.784  0.00  0.00    +0.020 C 
BRANCH  22  26
ATOM     26  O   LIG    1       -3.626  -8.136   0.101  0.00  0.00    -0.312 OA
ATOM     27  H   LIG    1       -4.224  -8.877  -0.081  0.00  0.00    +0.237 HD
ENDBRANCH  22  26
ENDBRANCH  19  20
ENDBRANCH  16  18
ENDBRANCH   1  14
BRANCH  10  28
ATOM     28  C   LIG    1        3.838   1.948  -1.677  0.00  0.00    +0.249 C 
ATOM     29  N   LIG    1        3.241   1.833  -2.880  0.00  0.00    -0.308 N 
ATOM     30  H   LIG    1        2.560   1.098  -3.008  0.00  0.00    +0.149 HD
ATOM     31  O   LIG    1        4.755   2.742  -1.457  0.00  0.00    -0.270 OA
BRANCH  29  32
ATOM     32  C   LIG    1        3.627   2.577  -4.075  0.00  0.00    +0.073 C 
ATOM     33  C   LIG    1        2.539   3.196  -4.920  0.00  0.00    +0.024 C 
ATOM     34  C   LIG    1        3.449   4.080  -4.102  0.00  0.00    +0.024 C 
ENDBRANCH  29  32
ENDBRANCH  10  28
TORSDOF 6
