REMARK  Name = DB13848
REMARK                            x       y       z     vdW  Elec       q    Type
REMARK                         _______ _______ _______ _____ _____    ______ ____
ROOT
ATOM      1  C   LIG    1       -0.734   0.951  -0.416  0.00  0.00    +0.055 A 
ATOM      2  C   LIG    1       -2.126   1.032  -0.351  0.00  0.00    +0.159 A 
ATOM      3  C   LIG    1       -2.864  -0.050   0.145  0.00  0.00    +0.161 A 
ATOM      4  C   LIG    1       -2.201  -1.200   0.574  0.00  0.00    +0.087 A 
ATOM      5  C   LIG    1       -0.810  -1.279   0.508  0.00  0.00    +0.130 A 
ATOM      6  F   LIG    1       -0.196  -2.406   0.937  0.00  0.00    -0.205 F 
ATOM      7  C   LIG    1       -0.063  -0.206   0.003  0.00  0.00    -0.007 A 
ENDROOT
BRANCH   2   8
ATOM      8  O   LIG    1       -2.750   2.179  -0.776  0.00  0.00    -0.503 OA
ATOM      9  H   LIG    1       -2.137   2.842  -1.101  0.00  0.00    +0.292 HD
ENDBRANCH   2   8
BRANCH   3  10
ATOM     10  O   LIG    1       -4.234   0.000   0.221  0.00  0.00    -0.503 OA
ATOM     11  H   LIG    1       -4.621  -0.804   0.575  0.00  0.00    +0.292 HD
ENDBRANCH   3  10
BRANCH   7  12
ATOM     12  C   LIG    1        1.466  -0.289  -0.064  0.00  0.00    +0.068 C 
BRANCH  12  13
ATOM     13  CA  LIG    1        2.075   0.239  -1.391  0.00  0.00    +0.165 C 
BRANCH  13  14
ATOM     14  N   LIG    1        1.527  -0.420  -2.593  0.00  0.00    -0.318 NA
ATOM     15  H1  LIG    1        1.476  -1.422  -2.477  0.00  0.00    +0.119 HD
ATOM     16  H2  LIG    1        2.091  -0.232  -3.410  0.00  0.00    +0.119 HD
ENDBRANCH  13  14
BRANCH  13  17
ATOM     17  C   LIG    1        3.612   0.080  -1.401  0.00  0.00    +0.322 C 
ATOM     18  O   LIG    1        4.208  -0.831  -1.980  0.00  0.00    -0.249 OA
BRANCH  17  19
ATOM     19  OXT LIG    1        4.208   1.065  -0.668  0.00  0.00    -0.480 OA
ATOM     20  HXT LIG    1        5.164   0.981  -0.655  0.00  0.00    +0.295 HD
ENDBRANCH  17  19
ENDBRANCH  13  17
ENDBRANCH  12  13
ENDBRANCH   7  12
TORSDOF 7
