REMARK  Name = DB13501
REMARK                            x       y       z     vdW  Elec       q    Type
REMARK                         _______ _______ _______ _____ _____    ______ ____
ROOT
ATOM      1  N   LIG    1       -1.986  -0.881  -0.061  0.00  0.00    -0.256 N 
ATOM      2  N   LIG    1       -0.677  -1.207  -0.070  0.00  0.00    -0.132 NA
ATOM      3  C   LIG    1        0.003  -0.082  -0.105  0.00  0.00    +0.242 A 
ATOM      4  C   LIG    1       -0.871   1.047  -0.076  0.00  0.00    +0.063 A 
ATOM      5  C   LIG    1       -0.717   2.442  -0.076  0.00  0.00    +0.015 A 
ATOM      6  C   LIG    1       -1.860   3.239  -0.021  0.00  0.00    +0.001 A 
ATOM      7  C   LIG    1       -3.132   2.672   0.033  0.00  0.00    +0.002 A 
ATOM      8  C   LIG    1       -3.324   1.289   0.029  0.00  0.00    +0.028 A 
ATOM      9  C   LIG    1       -2.175   0.491  -0.031  0.00  0.00    +0.073 A 
ENDROOT
BRANCH   1  10
ATOM     10  C   LIG    1       -2.983  -1.938   0.050  0.00  0.00    +0.179 C 
BRANCH  10  14
ATOM     11  C   LIG    1       -4.223  -2.643   4.109  0.00  0.00    +0.000 A 
ATOM     12  C   LIG    1       -2.989  -3.120   3.671  0.00  0.00    +0.000 A 
ATOM     13  C   LIG    1       -2.590  -2.894   2.357  0.00  0.00    +0.005 A 
ATOM     14  C   LIG    1       -3.426  -2.192   1.484  0.00  0.00    -0.026 A 
ATOM     15  C   LIG    1       -4.662  -1.715   1.930  0.00  0.00    +0.005 A 
ATOM     16  C   LIG    1       -5.061  -1.942   3.245  0.00  0.00    +0.000 A 
ENDBRANCH  10  14
ENDBRANCH   1  10
BRANCH   3  17
ATOM     17  O   LIG    1        1.378  -0.022  -0.150  0.00  0.00    -0.464 OA
BRANCH  17  18
ATOM     18  C   LIG    1        2.097  -1.261  -0.181  0.00  0.00    +0.350 C 
BRANCH  18  19
ATOM     19  C   LIG    1        3.608  -1.008  -0.296  0.00  0.00    +0.343 C 
ATOM     20  O   LIG    1        4.418  -1.928  -0.383  0.00  0.00    -0.247 OA
BRANCH  19  21
ATOM     21  O   LIG    1        3.949   0.315  -0.288  0.00  0.00    -0.478 OA
ATOM     22  H   LIG    1        4.896   0.449  -0.363  0.00  0.00    +0.295 HD
ENDBRANCH  19  21
ENDBRANCH  18  19
ENDBRANCH  17  18
ENDBRANCH   3  17
TORSDOF 6
