REMARK  Name = DB13141
REMARK                            x       y       z     vdW  Elec       q    Type
REMARK                         _______ _______ _______ _____ _____    ______ ____
ROOT
ATOM      1  C   LIG    1        1.434  -0.122  -0.201  0.00  0.00    -0.044 C 
ENDROOT
BRANCH   1   2
ATOM      2  C   LIG    1        1.920  -1.563  -0.071  0.00  0.00    -0.042 A 
ATOM      3  C   LIG    1        2.481  -2.060   1.122  0.00  0.00    +0.040 A 
ATOM      4  C   LIG    1        2.921  -3.392   1.182  0.00  0.00    +0.040 A 
ATOM      5 BR   LIG    1        3.687  -4.123   2.771  0.00  0.00    -0.048 Br
ATOM      6  C   LIG    1        2.805  -4.217   0.063  0.00  0.00    +0.032 A 
ATOM      7  C   LIG    1        2.255  -3.725  -1.118  0.00  0.00    +0.019 A 
ATOM      8 BR   LIG    1        2.102  -4.857  -2.641  0.00  0.00    -0.050 Br
ATOM      9  C   LIG    1        1.816  -2.405  -1.184  0.00  0.00    +0.019 A 
BRANCH   3  10
ATOM     10  N   LIG    1        2.604  -1.240   2.249  0.00  0.00    -0.357 N 
ATOM     11  H   LIG    1        2.522  -0.243   2.118  0.00  0.00    +0.142 HD
ATOM     12  H   LIG    1        3.144  -1.598   3.024  0.00  0.00    +0.142 HD
ENDBRANCH   3  10
ENDBRANCH   1   2
BRANCH   1  13
ATOM     13  N   LIG    1        0.016   0.079   0.358  0.00  0.00    +0.384 N 
ATOM     14  H   LIG    1       -0.629  -0.492  -0.170  0.00  0.00    -0.085 HD
ATOM     15  H   LIG    1       -0.024  -0.270   1.306  0.00  0.00    -0.085 HD
BRANCH  13  18
ATOM     16  C   LIG    1       -2.525   2.902   1.160  0.00  0.00    +0.030 C 
ATOM     17  C   LIG    1       -1.824   1.530   1.174  0.00  0.00    -0.013 C 
ATOM     18  C   LIG    1       -0.510   1.528   0.357  0.00  0.00    -0.071 C 
ATOM     19  C   LIG    1       -0.803   1.984  -1.095  0.00  0.00    -0.013 C 
ATOM     20  C   LIG    1       -1.498   3.360  -1.153  0.00  0.00    +0.030 C 
ATOM     21  C   LIG    1       -2.765   3.430  -0.272  0.00  0.00    +0.114 C 
BRANCH  21  22
ATOM     22  O   LIG    1       -3.280   4.745  -0.240  0.00  0.00    -0.392 OA
ATOM     23  H   LIG    1       -2.628   5.321   0.166  0.00  0.00    +0.210 HD
ENDBRANCH  21  22
ENDBRANCH  13  18
ENDBRANCH   1  13
TORSDOF 5
