REMARK  Name = DB13039
REMARK                            x       y       z     vdW  Elec       q    Type
REMARK                         _______ _______ _______ _____ _____    ______ ____
ROOT
ATOM      1  C   LIG    1        0.007   2.534   0.047  0.00  0.00    +0.051 C 
ATOM      2  C   LIG    1       -0.762   1.211   0.055  0.00  0.00    +0.038 A 
ATOM      3  C   LIG    1       -0.072  -0.007   0.156  0.00  0.00    +0.180 A 
ATOM      4  C   LIG    1       -0.767  -1.224   0.123  0.00  0.00    +0.168 A 
ATOM      5  C   LIG    1       -2.186  -1.241   0.015  0.00  0.00    +0.031 A 
ATOM      6  C   LIG    1       -2.929  -2.455  -0.013  0.00  0.00    +0.012 A 
ATOM      7  C   LIG    1       -4.315  -2.441  -0.117  0.00  0.00    +0.001 A 
ATOM      8  C   LIG    1       -5.002  -1.238  -0.196  0.00  0.00    +0.001 A 
ATOM      9  C   LIG    1       -4.313  -0.031  -0.174  0.00  0.00    +0.012 A 
ATOM     10  C   LIG    1       -2.893  -0.000  -0.069  0.00  0.00    +0.028 A 
ATOM     11  C   LIG    1       -2.160   1.222  -0.049  0.00  0.00    +0.131 A 
ENDROOT
BRANCH   4  12
ATOM     12  O   LIG    1       -0.064  -2.404   0.197  0.00  0.00    -0.503 OA
ATOM     13  H   LIG    1        0.883  -2.268   0.275  0.00  0.00    +0.292 HD
ENDBRANCH   4  12
BRANCH  11  14
ATOM     14  O   LIG    1       -2.829   2.422  -0.129  0.00  0.00    -0.506 OA
ATOM     15  H   LIG    1       -2.240   3.179  -0.100  0.00  0.00    +0.292 HD
ENDBRANCH  11  14
BRANCH   3  16
ATOM     16  O   LIG    1        1.307  -0.020   0.248  0.00  0.00    -0.418 OA
BRANCH  16  17
ATOM     17  C   LIG    1        1.913   0.004   1.478  0.00  0.00    +0.345 C 
ATOM     18  O   LIG    1        1.298   0.024   2.550  0.00  0.00    -0.245 OA
BRANCH  17  19
ATOM     19  C   LIG    1        3.412   0.000   1.393  0.00  0.00    +0.060 A 
ATOM     20  C   LIG    1        4.166  -0.005   2.575  0.00  0.00    +0.017 A 
ATOM     21  C   LIG    1        5.557  -0.009   2.528  0.00  0.00    +0.023 A 
ATOM     22  C   LIG    1        6.209  -0.006   1.297  0.00  0.00    +0.025 A 
ATOM     23  C   LIG    1        5.476   0.001   0.113  0.00  0.00    +0.023 A 
ATOM     24  C   LIG    1        4.084   0.004   0.159  0.00  0.00    +0.017 A 
BRANCH  22  25
ATOM     25  N   LIG    1        7.602  -0.011   1.250  0.00  0.00    -0.358 N 
ATOM     26  H   LIG    1        8.069  -0.010   0.354  0.00  0.00    +0.142 HD
ATOM     27  H   LIG    1        8.128  -0.019   2.111  0.00  0.00    +0.142 HD
ENDBRANCH  22  25
ENDBRANCH  17  19
ENDBRANCH  16  17
ENDBRANCH   3  16
TORSDOF 6
