REMARK  Name = DB13853
REMARK                            x       y       z     vdW  Elec       q    Type
REMARK                         _______ _______ _______ _____ _____    ______ ____
ROOT
ATOM      1  C   LIG    1       -0.017   0.071   0.000  0.00  0.00    +0.120 A 
ATOM      2  C   LIG    1       -0.750   1.265   0.000  0.00  0.00    +0.046 A 
ATOM      3  C   LIG    1       -2.142   1.234   0.000  0.00  0.00    +0.012 A 
ATOM      4  C   LIG    1       -2.845   0.020   0.000  0.00  0.00    -0.011 A 
ATOM      5  C   LIG    1       -2.095  -1.168   0.000  0.00  0.00    +0.012 A 
ATOM      6  C   LIG    1       -0.703  -1.140   0.000  0.00  0.00    +0.046 A 
ENDROOT
BRANCH   4   7
ATOM      7  C   LIG    1       -4.343  -0.003   0.000  0.00  0.00    +0.028 A 
ATOM      8  S   LIG    1       -5.245   1.527   0.000  0.00  0.00    -0.051 S 
ATOM      9  S   LIG    1       -7.051   0.626   0.000  0.00  0.00    -0.044 S 
ATOM     10  C   LIG    1       -6.499  -1.045   0.000  0.00  0.00    +0.064 A 
ATOM     11  S   LIG    1       -7.581  -2.301   0.000  0.00  0.00    -0.044 S 
ATOM     12  C   LIG    1       -5.082  -1.133   0.000  0.00  0.00    +0.039 A 
ENDBRANCH   4   7
BRANCH   1  14
ATOM     13  C   LIG    1        2.119   1.208   0.000  0.00  0.00    +0.277 C 
ATOM     14  O   LIG    1        1.363   0.001   0.000  0.00  0.00    -0.495 OA
ENDBRANCH   1  14
TORSDOF 2
