REMARK  Name = DB13743
REMARK                            x       y       z     vdW  Elec       q    Type
REMARK                         _______ _______ _______ _____ _____    ______ ____
ROOT
ATOM      1  S   LIG    1        0.102  -0.103  -0.169  0.00  0.00    +0.132 S 
ATOM      2  O   LIG    1        1.294  -0.689   0.454  0.00  0.00    -0.136 OA
ATOM      3  O   LIG    1       -0.892  -1.079  -0.628  0.00  0.00    -0.136 OA
ENDROOT
BRANCH   1   4
ATOM      4  O   LIG    1        0.377   0.982  -1.117  0.00  0.00    -0.245 OA
ATOM      5  H   LIG    1        0.828   0.624  -1.898  0.00  0.00    +0.245 HD
ENDBRANCH   1   4
BRANCH   1   6
ATOM      6  S   LIG    1       -0.881   0.889   1.461  0.00  0.00    +0.010 S 
ATOM      7  H   LIG    1       -2.019   1.483   1.010  0.00  0.00    +0.129 HD
ENDBRANCH   1   6
TORSDOF 2
