REMARK  Name = DB13532
REMARK                            x       y       z     vdW  Elec       q    Type
REMARK                         _______ _______ _______ _____ _____    ______ ____
ROOT
ATOM      1  C   LIG    1        1.830   0.147   0.774  0.00  0.00    +0.160 C 
ATOM      2  N   LIG    1        2.252  -0.894   1.726  0.00  0.00    -0.170 NA
ATOM      3  H   LIG    1        1.584  -1.571   2.105  0.00  0.00    +0.150 HD
ATOM      4  S   LIG    1        3.975  -1.139   1.858  0.00  0.00    +0.062 S 
ATOM      5  O   LIG    1        4.614   0.123   2.244  0.00  0.00    -0.153 OA
ATOM      6  O   LIG    1        4.262  -2.362   2.616  0.00  0.00    -0.153 OA
ATOM      7  C   LIG    1        4.271  -1.403   0.121  0.00  0.00    +0.128 A 
ATOM      8  C   LIG    1        3.531  -0.724  -0.864  0.00  0.00    +0.056 A 
ATOM      9  C   LIG    1        3.797  -0.982  -2.210  0.00  0.00    +0.047 A 
ATOM     10  C   LIG    1        4.802  -1.873  -2.588  0.00  0.00    +0.069 A 
ATOM     11 CL   LIG    1        5.071  -2.122  -4.279  0.00  0.00    -0.081 Cl
ATOM     12  C   LIG    1        5.549  -2.541  -1.605  0.00  0.00    +0.125 A 
ATOM     13  C   LIG    1        5.271  -2.302  -0.255  0.00  0.00    +0.060 A 
ATOM     14  N   LIG    1        2.421   0.098  -0.569  0.00  0.00    -0.326 N 
ATOM     15  H   LIG    1        1.766   0.301  -1.310  0.00  0.00    +0.148 HD
ENDROOT
BRANCH  12  16
ATOM     16  S   LIG    1        6.847  -3.710  -2.032  0.00  0.00    +0.057 S 
ATOM     17  O   LIG    1        6.249  -4.704  -2.929  0.00  0.00    -0.153 OA
ATOM     18  O   LIG    1        7.508  -4.125  -0.790  0.00  0.00    -0.153 OA
BRANCH  16  19
ATOM     19  N   LIG    1        8.014  -2.781  -2.957  0.00  0.00    -0.203 NA
ATOM     20  H   LIG    1        7.668  -2.443  -3.859  0.00  0.00    +0.144 HD
ATOM     21  H   LIG    1        8.511  -2.067  -2.419  0.00  0.00    +0.144 HD
ENDBRANCH  16  19
ENDBRANCH  12  16
BRANCH   1  22
ATOM     22  C   LIG    1        0.286   0.086   0.670  0.00  0.00    +0.043 C 
BRANCH  22  25
ATOM     23  C   LIG    1       -1.427   3.416   0.356  0.00  0.00    +0.000 C 
ATOM     24  C   LIG    1       -0.118   2.642   0.519  0.00  0.00    +0.003 C 
ATOM     25  C   LIG    1       -0.371   1.254  -0.108  0.00  0.00    -0.008 C 
ATOM     26  C   LIG    1       -1.908   1.118  -0.208  0.00  0.00    +0.003 C 
ATOM     27  C   LIG    1       -2.501   2.342   0.498  0.00  0.00    +0.000 C 
ENDBRANCH  22  25
ENDBRANCH   1  22
TORSDOF 4
