REMARK  Name = DB13116
REMARK                            x       y       z     vdW  Elec       q    Type
REMARK                         _______ _______ _______ _____ _____    ______ ____
ROOT
ATOM      1  C   LIG    1        1.515   0.005   0.000  0.00  0.00    +0.418 C 
ATOM      2  F   LIG    1        2.009   0.609   1.081  0.00  0.00    -0.168 F 
ATOM      3  F   LIG    1        2.009   0.609  -1.081  0.00  0.00    -0.168 F 
ATOM      4  F   LIG    1        1.969  -1.247   0.000  0.00  0.00    -0.168 F 
ENDROOT
BRANCH   1   5
ATOM      5  C   LIG    1       -0.020   0.020   0.000  0.00  0.00    +0.326 C 
ATOM      6  F   LIG    1       -0.541   1.247   0.000  0.00  0.00    -0.240 F 
ENDBRANCH   1   5
TORSDOF 1
