REMARK  Name = DB13126
REMARK                            x       y       z     vdW  Elec       q    Type
REMARK                         _______ _______ _______ _____ _____    ______ ____
ROOT
ATOM      1  N   LIG    1       -1.810  -0.254   1.705  0.00  0.00    -0.286 N 
ATOM      2  H   LIG    1       -2.179   0.482   1.121  0.00  0.00    +0.151 HD
ATOM      3  C   LIG    1       -0.637  -0.811   1.348  0.00  0.00    +0.219 C 
ATOM      4  O   LIG    1       -0.019  -1.604   2.061  0.00  0.00    -0.275 OA
ENDROOT
BRANCH   1  11
ATOM      5  C   LIG    1       -6.491  -2.289   5.290  0.00  0.00    +0.045 C 
ATOM      6  C   LIG    1       -5.150  -1.864   5.879  0.00  0.00    -0.029 A 
ATOM      7  C   LIG    1       -4.324  -0.938   5.209  0.00  0.00    +0.046 A 
ATOM      8  N   LIG    1       -4.712  -0.459   3.936  0.00  0.00    -0.282 N 
ATOM      9  H   LIG    1       -5.708  -0.394   3.789  0.00  0.00    +0.155 HD
ATOM     10  C   LIG    1       -3.994  -0.201   2.822  0.00  0.00    +0.260 C 
ATOM     11  C   LIG    1       -2.464  -0.417   3.009  0.00  0.00    +0.278 C 
ATOM     12  N   LIG    1       -1.881   0.529   3.951  0.00  0.00    -0.251 NA
ATOM     13  C   LIG    1       -2.147   0.437   5.203  0.00  0.00    +0.077 C 
ATOM     14  O   LIG    1       -4.520   0.147   1.764  0.00  0.00    -0.271 OA
ATOM     15  C   LIG    1       -3.076  -0.574   5.796  0.00  0.00    +0.022 A 
ATOM     16  C   LIG    1       -2.706  -1.173   7.013  0.00  0.00    +0.012 A 
ATOM     17  C   LIG    1       -3.534  -2.083   7.657  0.00  0.00    +0.001 A 
ATOM     18  C   LIG    1       -4.755  -2.421   7.095  0.00  0.00    +0.005 A 
BRANCH  13  19
ATOM     19  C   LIG    1       -1.516   1.414   6.123  0.00  0.00    +0.003 A 
ATOM     20  C   LIG    1       -2.242   1.977   7.185  0.00  0.00    +0.048 A 
ATOM     21  C   LIG    1       -1.646   2.903   8.043  0.00  0.00    +0.124 A 
ATOM     22  F   LIG    1       -2.358   3.434   9.062  0.00  0.00    -0.205 F 
ATOM     23  C   LIG    1       -0.319   3.282   7.848  0.00  0.00    +0.038 A 
ATOM     24  C   LIG    1        0.413   2.737   6.795  0.00  0.00    +0.003 A 
ATOM     25  C   LIG    1       -0.180   1.810   5.937  0.00  0.00    +0.010 A 
ENDBRANCH  13  19
ENDBRANCH   1  11
BRANCH   3  26
ATOM     26  C   LIG    1       -0.054  -0.383  -0.019  0.00  0.00    +0.087 C 
BRANCH  26  27
ATOM     27  C   LIG    1        1.283   0.434   0.159  0.00  0.00    +0.087 C 
BRANCH  27  28
ATOM     28  C   LIG    1        1.890   0.853  -1.202  0.00  0.00    +0.214 C 
ATOM     29  N   LIG    1        3.094   0.368  -1.519  0.00  0.00    -0.329 N 
ATOM     30  H   LIG    1        3.523   0.617  -2.398  0.00  0.00    +0.145 HD
ATOM     31  H   LIG    1        3.580  -0.251  -0.886  0.00  0.00    +0.145 HD
ATOM     32  O   LIG    1        1.276   1.604  -1.957  0.00  0.00    -0.276 OA
ENDBRANCH  27  28
BRANCH  27  33
ATOM     33  C   LIG    1        1.131   1.681   1.093  0.00  0.00    +0.022 C 
BRANCH  33  34
ATOM     34  C   LIG    1        2.433   2.466   1.383  0.00  0.00    +0.114 C 
BRANCH  34  35
ATOM     35  C   LIG    1        2.257   3.618   2.390  0.00  0.00    +0.390 C 
ATOM     36  F   LIG    1        1.842   3.174   3.576  0.00  0.00    -0.171 F 
ATOM     37  F   LIG    1        1.367   4.512   1.960  0.00  0.00    -0.171 F 
ATOM     38  F   LIG    1        3.410   4.258   2.583  0.00  0.00    -0.171 F 
ENDBRANCH  34  35
ENDBRANCH  33  34
ENDBRANCH  27  33
ENDBRANCH  26  27
BRANCH  26  39
ATOM     39  C   LIG    1        0.076  -1.619  -0.967  0.00  0.00    +0.022 C 
BRANCH  39  40
ATOM     40  C   LIG    1       -1.235  -2.401  -1.228  0.00  0.00    +0.114 C 
BRANCH  40  41
ATOM     41  C   LIG    1       -1.091  -3.536  -2.258  0.00  0.00    +0.390 C 
ATOM     42  F   LIG    1       -0.188  -4.437  -1.870  0.00  0.00    -0.171 F 
ATOM     43  F   LIG    1       -0.713  -3.073  -3.450  0.00  0.00    -0.171 F 
ATOM     44  F   LIG    1       -2.250  -4.174  -2.424  0.00  0.00    -0.171 F 
ENDBRANCH  40  41
ENDBRANCH  39  40
ENDBRANCH  26  39
ENDBRANCH   3  26
TORSDOF 11
