REMARK  Name = DB13103
REMARK                            x       y       z     vdW  Elec       q    Type
REMARK                         _______ _______ _______ _____ _____    ______ ____
ROOT
ATOM      1  C   LIG    1        1.380  -0.227   0.105  0.00  0.00    +0.158 C 
ATOM      2  C   LIG    1        1.759  -1.717  -0.041  0.00  0.00    +0.030 A 
ATOM      3  C   LIG    1        1.558  -2.370  -1.270  0.00  0.00    +0.133 A 
ATOM      4  C   LIG    1        1.770  -3.761  -1.430  0.00  0.00    +0.056 A 
ATOM      5  C   LIG    1        1.532  -4.453  -2.743  0.00  0.00    +0.078 C 
ATOM      6  N   LIG    1        0.658  -4.046  -3.568  0.00  0.00    -0.298 NA
ATOM      7  H   LIG    1        0.601  -4.634  -4.388  0.00  0.00    +0.187 HD
ATOM      8  C   LIG    1        2.287  -5.718  -2.988  0.00  0.00    +0.053 A 
ATOM      9  C   LIG    1        2.564  -6.191  -4.299  0.00  0.00    +0.130 A 
ATOM     10  C   LIG    1        3.253  -7.406  -4.459  0.00  0.00    +0.046 A 
ATOM     11  C   LIG    1        3.674  -8.140  -3.360  0.00  0.00    +0.004 A 
ATOM     12  C   LIG    1        3.422  -7.673  -2.079  0.00  0.00    +0.012 A 
ATOM     13  C   LIG    1        2.736  -6.468  -1.873  0.00  0.00    +0.035 A 
ATOM     14  C   LIG    1        2.506  -5.993  -0.468  0.00  0.00    +0.198 C 
ATOM     15  O   LIG    1        2.694  -6.747   0.490  0.00  0.00    -0.286 OA
ATOM     16  C   LIG    1        2.224  -4.510  -0.314  0.00  0.00    +0.077 A 
ATOM     17  C   LIG    1        2.427  -3.847   0.917  0.00  0.00    +0.132 A 
ATOM     18  C   LIG    1        2.186  -2.472   1.072  0.00  0.00    +0.007 A 
ATOM     19  C   LIG    1        2.456  -1.785   2.427  0.00  0.00    +0.082 C 
ATOM     20  C   LIG    1        1.666  -0.468   2.644  0.00  0.00    +0.133 C 
ATOM     21  C   LIG    1        1.925   0.413   1.405  0.00  0.00    +0.079 C 
ENDROOT
BRANCH   3  22
ATOM     22  O   LIG    1        1.156  -1.587  -2.331  0.00  0.00    -0.506 OA
ATOM     23  H   LIG    1        1.035  -0.666  -2.092  0.00  0.00    +0.292 HD
ENDBRANCH   3  22
BRANCH   9  24
ATOM     24  O   LIG    1        2.163  -5.433  -5.390  0.00  0.00    -0.494 OA
ATOM     25  C   LIG    1        2.442  -5.872  -6.716  0.00  0.00    +0.277 C 
ENDBRANCH   9  24
BRANCH  17  26
ATOM     26  O   LIG    1        2.901  -4.527   2.017  0.00  0.00    -0.506 OA
ATOM     27  H   LIG    1        3.004  -3.965   2.788  0.00  0.00    +0.292 HD
ENDBRANCH  17  26
BRANCH  20  28
ATOM     28  O   LIG    1        0.287  -0.752   2.822  0.00  0.00    -0.381 OA
ATOM     29  H   LIG    1       -0.187   0.081   2.874  0.00  0.00    +0.211 HD
ENDBRANCH  20  28
BRANCH  20  30
ATOM     30  C   LIG    1        2.165   0.280   3.919  0.00  0.00    +0.190 C 
ATOM     31  O   LIG    1        3.335   0.183   4.292  0.00  0.00    -0.292 OA
BRANCH  30  32
ATOM     32  C   LIG    1        1.195   1.125   4.764  0.00  0.00    +0.233 C 
BRANCH  32  33
ATOM     33  O   LIG    1        0.486   2.024   3.934  0.00  0.00    -0.387 OA
ATOM     34  H   LIG    1       -0.018   2.621   4.491  0.00  0.00    +0.210 HD
ENDBRANCH  32  33
ENDBRANCH  30  32
ENDBRANCH  20  30
BRANCH   1  35
ATOM     35  O   LIG    1       -0.039  -0.121  -0.040  0.00  0.00    -0.343 OA
BRANCH  35  39
ATOM     36  C   LIG    1       -2.842   1.259   2.797  0.00  0.00    +0.040 C 
ATOM     37  C   LIG    1       -2.360   0.791   1.412  0.00  0.00    +0.145 C 
ATOM     38  O   LIG    1       -1.217   1.572   1.020  0.00  0.00    -0.346 OA
ATOM     39  C   LIG    1       -0.585   1.161  -0.172  0.00  0.00    +0.250 C 
ATOM     40  C   LIG    1       -1.574   1.144  -1.347  0.00  0.00    +0.048 C 
ATOM     41  C   LIG    1       -2.835   0.329  -1.001  0.00  0.00    -0.039 C 
ATOM     42  C   LIG    1       -3.467   0.800   0.330  0.00  0.00    +0.129 C 
BRANCH  41  43
ATOM     43  N   LIG    1       -3.839   0.447  -2.163  0.00  0.00    +0.382 N 
ATOM     44  H   LIG    1       -3.418   0.130  -3.024  0.00  0.00    -0.090 HD
ATOM     45  H   LIG    1       -4.658  -0.113  -1.974  0.00  0.00    -0.090 HD
ATOM     46  H   LIG    1       -4.124   1.410  -2.273  0.00  0.00    -0.090 HD
ENDBRANCH  41  43
BRANCH  42  47
ATOM     47  O   LIG    1       -4.111   2.067   0.256  0.00  0.00    -0.391 OA
ATOM     48  H   LIG    1       -4.589   2.217   1.075  0.00  0.00    +0.210 HD
ENDBRANCH  42  47
ENDBRANCH  35  39
ENDBRANCH   1  35
TORSDOF 11
