REMARK  Name = DB13346
REMARK                            x       y       z     vdW  Elec       q    Type
REMARK                         _______ _______ _______ _____ _____    ______ ____
ROOT
ATOM      1  C   LIG    1       -0.637  -0.948  -0.058  0.00  0.00    +0.046 A 
ATOM      2  C   LIG    1        0.068   0.256  -0.015  0.00  0.00    +0.121 A 
ATOM      3  C   LIG    1       -0.642   1.467  -0.029  0.00  0.00    +0.046 A 
ATOM      4  C   LIG    1       -2.033   1.464  -0.087  0.00  0.00    +0.007 A 
ATOM      5  C   LIG    1       -2.730   0.255  -0.127  0.00  0.00    -0.038 A 
ATOM      6  C   LIG    1       -2.027  -0.953  -0.117  0.00  0.00    +0.007 A 
ENDROOT
BRANCH   2   7
ATOM      7  O   LIG    1        1.446   0.161   0.037  0.00  0.00    -0.492 OA
BRANCH   7   8
ATOM      8  C   LIG    1        2.228   1.352   0.089  0.00  0.00    +0.229 C 
BRANCH   8   9
ATOM      9  C   LIG    1        3.722   0.992   0.118  0.00  0.00    +0.041 C 
BRANCH   9  10
ATOM     10  C   LIG    1        4.137   0.170   1.352  0.00  0.00    -0.000 C 
ATOM     11  C   LIG    1        5.642  -0.125   1.395  0.00  0.00    +0.004 C 
ENDBRANCH   9  10
ENDBRANCH   8   9
ENDBRANCH   7   8
ENDBRANCH   2   7
BRANCH   5  12
ATOM     12  C   LIG    1       -4.254   0.255  -0.212  0.00  0.00    +0.133 C 
BRANCH  12  13
ATOM     13  C   LIG    1       -4.766   0.336  -1.660  0.00  0.00    +0.240 C 
ATOM     14  O   LIG    1       -4.254  -0.364  -2.538  0.00  0.00    -0.273 OA
ATOM     15  N   LIG    1       -5.792   1.178  -1.876  0.00  0.00    -0.197 N 
ATOM     16  H   LIG    1       -6.291   1.746  -1.206  0.00  0.00    +0.182 HD
BRANCH  15  17
ATOM     17  O   LIG    1       -6.322   1.261  -3.168  0.00  0.00    -0.295 OA
ATOM     18  H   LIG    1       -7.168   0.814  -3.088  0.00  0.00    +0.241 HD
ENDBRANCH  15  17
ENDBRANCH  12  13
ENDBRANCH   5  12
TORSDOF 7
