REMARK  Name = DB13292
REMARK                            x       y       z     vdW  Elec       q    Type
REMARK                         _______ _______ _______ _____ _____    ______ ____
ROOT
ATOM      1  S   LIG    1       -6.544   1.353   2.523  0.00  0.00    -0.088 S 
ATOM      2  C   LIG    1       -5.454   2.707   2.187  0.00  0.00    +0.020 A 
ATOM      3  C   LIG    1       -5.970   4.001   2.103  0.00  0.00    +0.015 A 
ATOM      4  C   LIG    1       -5.122   5.081   1.869  0.00  0.00    +0.001 A 
ATOM      5  C   LIG    1       -3.754   4.869   1.720  0.00  0.00    +0.001 A 
ATOM      6  C   LIG    1       -3.239   3.575   1.779  0.00  0.00    +0.009 A 
ATOM      7  C   LIG    1       -4.081   2.470   1.975  0.00  0.00    -0.004 A 
ATOM      8  C   LIG    1       -3.531   1.079   2.002  0.00  0.00    -0.009 C 
ATOM      9  C   LIG    1       -4.075   0.298   3.156  0.00  0.00    -0.004 A 
ATOM     10  C   LIG    1       -3.227  -0.464   3.976  0.00  0.00    +0.009 A 
ATOM     11  C   LIG    1       -3.736  -1.218   5.032  0.00  0.00    +0.001 A 
ATOM     12  C   LIG    1       -5.103  -1.214   5.295  0.00  0.00    +0.001 A 
ATOM     13  C   LIG    1       -5.957  -0.435   4.517  0.00  0.00    +0.015 A 
ATOM     14  C   LIG    1       -2.652   0.581   1.081  0.00  0.00    -0.059 C 
ATOM     15  C   LIG    1       -2.094  -0.845   1.040  0.00  0.00    +0.047 C 
ATOM     16  C   LIG    1       -0.552  -0.787   1.123  0.00  0.00    +0.088 C 
ATOM     17  N   LIG    1        0.043   0.041   0.066  0.00  0.00    -0.305 NA
ATOM     18  C   LIG    1        1.490   0.133   0.224  0.00  0.00    +0.104 C 
ATOM     19  C   LIG    1       -0.561   1.375  -0.050  0.00  0.00    +0.088 C 
ATOM     20  C   LIG    1       -2.103   1.325  -0.140  0.00  0.00    +0.047 C 
ATOM     21  C   LIG    1       -5.446   0.341   3.474  0.00  0.00    +0.020 A 
ENDROOT
TORSDOF 0
