REMARK  Name = DB13258
REMARK                            x       y       z     vdW  Elec       q    Type
REMARK                         _______ _______ _______ _____ _____    ______ ____
ROOT
ATOM      1  C   LIG    1        2.295   1.283   1.434  0.00  0.00    -0.030 A 
ATOM      2  C   LIG    1        1.980   1.915   2.638  0.00  0.00    +0.009 A 
ATOM      3  C   LIG    1        2.229   3.276   2.797  0.00  0.00    +0.046 A 
ATOM      4  C   LIG    1        2.811   4.011   1.756  0.00  0.00    +0.128 A 
ATOM      5  C   LIG    1        3.126   3.375   0.555  0.00  0.00    +0.046 A 
ATOM      6  C   LIG    1        2.877   2.015   0.395  0.00  0.00    +0.009 A 
ENDROOT
BRANCH   1   7
ATOM      7  C   LIG    1        1.989  -0.202   1.261  0.00  0.00    +0.143 C 
BRANCH   7   8
ATOM      8  N   LIG    1        1.113  -0.531   0.117  0.00  0.00    -0.293 N 
ATOM      9  C   LIG    1        1.639  -0.918  -1.080  0.00  0.00    +0.249 C 
ATOM     10  O   LIG    1        2.849  -1.110  -1.228  0.00  0.00    -0.273 OA
BRANCH   9  11
ATOM     11  C   LIG    1        0.713  -1.149  -2.294  0.00  0.00    +0.256 C 
ATOM     12 CL   LIG    1        1.549  -0.893  -3.853  0.00  0.00    -0.094 Cl
ATOM     13 CL   LIG    1        0.022  -2.792  -2.252  0.00  0.00    -0.094 Cl
ENDBRANCH   9  11
BRANCH   8  14
ATOM     14  C   LIG    1       -0.322  -0.253   0.339  0.00  0.00    +0.136 C 
BRANCH  14  15
ATOM     15  C   LIG    1       -0.724   1.227   0.160  0.00  0.00    +0.178 C 
BRANCH  15  16
ATOM     16  O   LIG    1       -0.126   1.779  -1.006  0.00  0.00    -0.378 OA
BRANCH  16  18
ATOM     17  C   LIG    1        0.409   3.648  -2.406  0.00  0.00    +0.034 C 
ATOM     18  C   LIG    1       -0.361   3.169  -1.173  0.00  0.00    +0.156 C 
ENDBRANCH  16  18
ENDBRANCH  15  16
ENDBRANCH  14  15
ENDBRANCH   8  14
ENDBRANCH   7   8
ENDBRANCH   1   7
BRANCH   4  19
ATOM     19  O   LIG    1        3.048   5.367   1.843  0.00  0.00    -0.456 OA
BRANCH  19  20
ATOM     20  C   LIG    1        3.399   5.952   3.040  0.00  0.00    +0.129 A 
ATOM     21  C   LIG    1        4.431   5.441   3.832  0.00  0.00    +0.048 A 
ATOM     22  C   LIG    1        4.771   6.071   5.026  0.00  0.00    +0.036 A 
ATOM     23  C   LIG    1        4.091   7.225   5.441  0.00  0.00    +0.122 A 
ATOM     24  C   LIG    1        3.069   7.738   4.629  0.00  0.00    +0.036 A 
ATOM     25  C   LIG    1        2.730   7.108   3.435  0.00  0.00    +0.048 A 
BRANCH  23  26
ATOM     26  N   LIG    1        4.451   7.895   6.715  0.00  0.00    +0.006 N 
ATOM     27  O   LIG    1        5.365   7.428   7.387  0.00  0.00    -0.130 OA
BRANCH  26  28
ATOM     28  O   LIG    1        3.821   8.894   7.052  0.00  0.00    -0.396 OA
ATOM     29  H   LIG    1        3.130   9.218   6.509  0.00  0.00    +0.329 HD
ENDBRANCH  26  28
ENDBRANCH  23  26
ENDBRANCH  19  20
ENDBRANCH   4  19
TORSDOF 11
