REMARK  Name = DB13163
REMARK                            x       y       z     vdW  Elec       q    Type
REMARK                         _______ _______ _______ _____ _____    ______ ____
ROOT
ATOM      1  C   LIG    1        1.487   0.179   0.005  0.00  0.00    +0.020 C 
ATOM      2  C   LIG    1        1.986   0.981  -1.221  0.00  0.00    +0.009 C 
ATOM      3  C   LIG    1        3.526   1.050  -1.292  0.00  0.00    +0.035 C 
ATOM      4  C   LIG    1        4.269   1.475   0.014  0.00  0.00    +0.063 C 
ATOM      5  C   LIG    1        5.755   1.078  -0.013  0.00  0.00    +0.041 C 
ATOM      6  C   LIG    1        3.524   1.039   1.315  0.00  0.00    +0.035 C 
ATOM      7  C   LIG    1        1.984   0.967   1.241  0.00  0.00    +0.009 C 
ENDROOT
BRANCH   1   8
ATOM      8  C   LIG    1       -0.063  -0.086   0.002  0.00  0.00    +0.063 C 
ATOM      9  C   LIG    1       -0.528  -0.866   1.254  0.00  0.00    +0.041 C 
ATOM     10  C   LIG    1       -0.527  -0.852  -1.260  0.00  0.00    +0.041 C 
BRANCH   8  11
ATOM     11  O   LIG    1       -0.763   1.147   0.008  0.00  0.00    -0.389 OA
ATOM     12  H   LIG    1       -1.705   0.962   0.010  0.00  0.00    +0.210 HD
ENDBRANCH   8  11
ENDBRANCH   1   8
BRANCH   4  13
ATOM     13  O   LIG    1        4.059   2.878   0.006  0.00  0.00    -0.389 OA
ATOM     14  H   LIG    1        4.257   3.210  -0.873  0.00  0.00    +0.210 HD
ENDBRANCH   4  13
TORSDOF 3
