REMARK  Name = DB13854
REMARK                            x       y       z     vdW  Elec       q    Type
REMARK                         _______ _______ _______ _____ _____    ______ ____
ROOT
ATOM      1  C   LIG    1        2.420  -2.275  -1.895  0.00  0.00    +0.053 C 
ENDROOT
BRANCH   1   3
ATOM      2  C   LIG    1        3.374  -0.630  -3.630  0.00  0.00    -0.031 C 
ATOM      3  C   LIG    1        3.492  -1.681  -2.794  0.00  0.00    -0.027 C 
BRANCH   2   4
ATOM      4  C   LIG    1        2.146   0.237  -3.856  0.00  0.00    +0.027 C 
BRANCH   4   5
ATOM      5  C   LIG    1        1.534   0.064  -5.258  0.00  0.00    +0.005 C 
BRANCH   5   6
ATOM      6  C   LIG    1        0.219   0.847  -5.475  0.00  0.00    +0.011 C 
BRANCH   6   7
ATOM      7  C   LIG    1        0.304   2.386  -5.320  0.00  0.00    +0.120 C 
BRANCH   7   8
ATOM      8  C   LIG    1        1.183   3.107  -6.353  0.00  0.00    +0.305 C 
ATOM      9  O   LIG    1        1.661   2.572  -7.351  0.00  0.00    -0.251 OA
BRANCH   8  10
ATOM     10  O   LIG    1        1.342   4.422  -6.027  0.00  0.00    -0.481 OA
ATOM     11  H   LIG    1        1.883   4.891  -6.666  0.00  0.00    +0.295 HD
ENDBRANCH   8  10
ENDBRANCH   7   8
ENDBRANCH   6   7
ENDBRANCH   5   6
ENDBRANCH   4   5
ENDBRANCH   2   4
ENDBRANCH   1   3
BRANCH   1  12
ATOM     12  C   LIG    1        2.602  -1.900  -0.434  0.00  0.00    -0.027 C 
ATOM     13  C   LIG    1        1.827  -1.091   0.317  0.00  0.00    -0.027 C 
BRANCH  13  14
ATOM     14  C   LIG    1        0.569  -0.352  -0.105  0.00  0.00    +0.053 C 
BRANCH  14  15
ATOM     15  C   LIG    1        0.788   1.144  -0.257  0.00  0.00    -0.027 C 
ATOM     16  C   LIG    1        0.257   2.136   0.483  0.00  0.00    -0.031 C 
BRANCH  16  17
ATOM     17  C   LIG    1       -0.709   2.013   1.651  0.00  0.00    +0.027 C 
BRANCH  17  18
ATOM     18  C   LIG    1       -0.057   2.351   3.003  0.00  0.00    +0.004 C 
BRANCH  18  19
ATOM     19  C   LIG    1       -1.040   2.260   4.184  0.00  0.00    +0.000 C 
BRANCH  19  20
ATOM     20  C   LIG    1       -0.383   2.590   5.536  0.00  0.00    -0.003 C 
ATOM     21  C   LIG    1       -1.365   2.513   6.713  0.00  0.00    +0.004 C 
ENDBRANCH  19  20
ENDBRANCH  18  19
ENDBRANCH  17  18
ENDBRANCH  16  17
ENDBRANCH  14  15
ENDBRANCH  13  14
ENDBRANCH   1  12
TORSDOF 14
