REMARK  Name = DB13939
REMARK                            x       y       z     vdW  Elec       q    Type
REMARK                         _______ _______ _______ _____ _____    ______ ____
ROOT
ATOM      1  C   LIG    1        0.163  -0.150   0.158  0.00  0.00    +0.187 C 
ENDROOT
BRANCH   1   2
ATOM      2  C   LIG    1       -0.255  -0.940   1.391  0.00  0.00    +0.240 A 
ATOM      3  O   LIG    1        0.286  -0.614   2.592  0.00  0.00    -0.418 OA
ATOM      4  C   LIG    1       -0.307  -1.498   3.436  0.00  0.00    +0.248 A 
ATOM      5  N   LIG    1       -1.146  -2.294   2.814  0.00  0.00    -0.107 NA
ATOM      6  N   LIG    1       -1.113  -1.927   1.472  0.00  0.00    -0.110 NA
BRANCH   4   7
ATOM      7  C   LIG    1        0.034  -1.460   4.890  0.00  0.00    +0.039 A 
ATOM      8  C   LIG    1        1.048  -0.615   5.354  0.00  0.00    +0.014 A 
ATOM      9  C   LIG    1        1.365  -0.577   6.709  0.00  0.00    +0.019 A 
ATOM     10  C   LIG    1        0.667  -1.384   7.609  0.00  0.00    +0.052 A 
ATOM     11  C   LIG    1       -0.346  -2.230   7.154  0.00  0.00    +0.019 A 
ATOM     12  C   LIG    1       -0.660  -2.267   5.798  0.00  0.00    +0.014 A 
BRANCH  10  13
ATOM     13  C   LIG    1        0.996  -1.343   9.026  0.00  0.00    +0.099 C 
ATOM     14  N   LIG    1        1.258  -1.310  10.153  0.00  0.00    -0.191 NA
ENDBRANCH  10  13
ENDBRANCH   4   7
ENDBRANCH   1   2
BRANCH   1  15
ATOM     15  N   LIG    1        1.608  -0.236  -0.087  0.00  0.00    -0.331 N 
ATOM     16  H   LIG    1        2.057   0.613  -0.399  0.00  0.00    +0.147 HD
BRANCH  15  24
ATOM     17  C   LIG    1        4.516  -0.105  -0.179  0.00  0.00    +0.047 C 
ATOM     18  C   LIG    1        3.733  -1.412  -0.357  0.00  0.00    -0.010 A 
ATOM     19  C   LIG    1        4.447  -2.608  -0.572  0.00  0.00    +0.063 A 
ATOM     20 CL   LIG    1        6.189  -2.576  -0.614  0.00  0.00    -0.082 Cl
ATOM     21  C   LIG    1        3.753  -3.819  -0.746  0.00  0.00    +0.070 A 
ATOM     22  C   LIG    1        2.360  -3.828  -0.711  0.00  0.00    +0.022 A 
ATOM     23  C   LIG    1        1.655  -2.651  -0.497  0.00  0.00    +0.024 A 
ATOM     24  C   LIG    1        2.321  -1.434  -0.305  0.00  0.00    +0.032 A 
BRANCH  21  25
ATOM     25  C   LIG    1        4.442  -5.087  -0.971  0.00  0.00    +0.101 C 
ATOM     26  N   LIG    1        4.988  -6.091  -1.150  0.00  0.00    -0.191 NA
ENDBRANCH  21  25
ENDBRANCH  15  24
ENDBRANCH   1  15
BRANCH   1  27
ATOM     27  C   LIG    1       -0.313   1.327   0.260  0.00  0.00    +0.141 C 
ATOM     28  C   LIG    1       -1.837   1.481   0.434  0.00  0.00    +0.040 C 
BRANCH  27  29
ATOM     29  O   LIG    1        0.051   2.049  -0.904  0.00  0.00    -0.390 OA
ATOM     30  H   LIG    1       -0.251   2.956  -0.807  0.00  0.00    +0.210 HD
ENDBRANCH  27  29
ENDBRANCH   1  27
TORSDOF 8
