REMARK  Name = DB13146
REMARK                            x       y       z     vdW  Elec       q    Type
REMARK                         _______ _______ _______ _____ _____    ______ ____
ROOT
ATOM      1  C   LIG    1       -0.665  -0.919  -1.069  0.00  0.00    +0.070 C 
ATOM      2  C   LIG    1       -1.697  -1.332  -0.002  0.00  0.00    +0.171 C 
ATOM      3  F   LIG    1       -2.845  -0.651  -0.005  0.00  0.00    -0.245 F 
ATOM      4  C   LIG    1       -0.666  -0.907   1.063  0.00  0.00    +0.070 C 
ATOM      5  C   LIG    1        0.031  -0.036  -0.006  0.00  0.00    +0.120 C 
ENDROOT
BRANCH   5   6
ATOM      6  N   LIG    1        1.483   0.042  -0.016  0.00  0.00    -0.316 NA
ATOM      7  H   LIG    1        1.803   0.561   0.789  0.00  0.00    +0.119 HD
ATOM      8  H   LIG    1        1.795   0.541  -0.837  0.00  0.00    +0.119 HD
ENDBRANCH   5   6
BRANCH   5   9
ATOM      9  C   LIG    1       -0.496   1.431   0.015  0.00  0.00    +0.325 C 
ATOM     10  O   LIG    1       -1.168   1.933  -0.885  0.00  0.00    -0.249 OA
BRANCH   9  11
ATOM     11  O   LIG    1       -0.128   2.095   1.153  0.00  0.00    -0.479 OA
ATOM     12  H   LIG    1       -0.456   2.997   1.170  0.00  0.00    +0.295 HD
ENDBRANCH   9  11
ENDBRANCH   5   9
TORSDOF 3
