REMARK  Name = DB13051
REMARK                            x       y       z     vdW  Elec       q    Type
REMARK                         _______ _______ _______ _____ _____    ______ ____
ROOT
ATOM      1  C   LIG    1        1.624   0.041   0.150  0.00  0.00    +0.084 A 
ATOM      2  N   LIG    1        2.333   0.177  -1.009  0.00  0.00    -0.214 NA
ATOM      3  C   LIG    1        3.691   0.028  -0.961  0.00  0.00    +0.220 A 
ATOM      4  N   LIG    1        4.381  -0.282   0.174  0.00  0.00    -0.198 NA
ATOM      5  C   LIG    1        3.658  -0.392   1.316  0.00  0.00    +0.149 A 
ATOM      6  N   LIG    1        4.159  -0.760   2.569  0.00  0.00    -0.190 N 
ATOM      7  C   LIG    1        3.141  -0.428   3.558  0.00  0.00    +0.137 C 
ATOM      8  C   LIG    1        1.820  -0.435   2.778  0.00  0.00    +0.061 C 
ATOM      9  C   LIG    1        2.282  -0.219   1.361  0.00  0.00    +0.022 A 
ENDROOT
BRANCH   1  12
ATOM     10  N   LIG    1       -1.772   1.344  -0.943  0.00  0.00    -0.222 NA
ATOM     11  C   LIG    1       -0.429   1.167  -0.824  0.00  0.00    +0.126 A 
ATOM     12  C   LIG    1        0.148   0.218   0.036  0.00  0.00    +0.037 A 
ATOM     13  C   LIG    1       -0.763  -0.557   0.771  0.00  0.00    +0.126 A 
ATOM     14  N   LIG    1       -2.110  -0.409   0.679  0.00  0.00    -0.222 NA
ATOM     15  C   LIG    1       -2.554   0.543  -0.179  0.00  0.00    +0.213 A 
BRANCH  15  16
ATOM     16  N   LIG    1       -3.932   0.711  -0.285  0.00  0.00    -0.327 N 
ATOM     17  H   LIG    1       -4.298   1.410  -0.915  0.00  0.00    +0.145 HD
ATOM     18  H   LIG    1       -4.547   0.127   0.263  0.00  0.00    +0.145 HD
ENDBRANCH  15  16
ENDBRANCH   1  12
BRANCH   3  19
ATOM     19  N   LIG    1        4.407   0.122  -2.160  0.00  0.00    -0.295 N 
ATOM     20  C   LIG    1        5.880   0.257  -2.167  0.00  0.00    +0.136 C 
ATOM     21  C   LIG    1        6.539  -0.049  -3.527  0.00  0.00    +0.179 C 
ATOM     22  O   LIG    1        5.931   0.723  -4.548  0.00  0.00    -0.377 OA
ATOM     23  C   LIG    1        4.554   0.412  -4.679  0.00  0.00    +0.179 C 
ATOM     24  C   LIG    1        3.809   0.732  -3.367  0.00  0.00    +0.136 C 
ENDBRANCH   3  19
BRANCH   6  25
ATOM     25  S   LIG    1        5.879  -0.844   3.009  0.00  0.00    +0.044 S 
ATOM     26  C   LIG    1        6.394   0.971   2.967  0.00  0.00    +0.218 C 
ATOM     27  O   LIG    1        6.571  -1.552   1.927  0.00  0.00    -0.155 OA
ATOM     28  O   LIG    1        5.950  -1.332   4.390  0.00  0.00    -0.155 OA
ENDBRANCH   6  25
TORSDOF 4
