REMARK  Name = DB13109
REMARK                            x       y       z     vdW  Elec       q    Type
REMARK                         _______ _______ _______ _____ _____    ______ ____
ROOT
ATOM      1  C   LIG    1        1.652  -0.044   0.501  0.00  0.00    +0.167 A 
ATOM      2  N   LIG    1        2.177  -1.264   0.193  0.00  0.00    -0.194 NA
ATOM      3  C   LIG    1        3.535  -1.338   0.192  0.00  0.00    +0.223 A 
ATOM      4  N   LIG    1        4.364  -0.302   0.489  0.00  0.00    -0.181 NA
ATOM      5  C   LIG    1        3.757   0.878   0.802  0.00  0.00    +0.223 A 
ATOM      6  N   LIG    1        2.404   1.052   0.804  0.00  0.00    -0.194 NA
ENDROOT
BRANCH   3   7
ATOM      7  N   LIG    1        4.121  -2.574  -0.115  0.00  0.00    -0.289 N 
ATOM      8  C   LIG    1        5.538  -2.885  -0.312  0.00  0.00    +0.102 C 
ATOM      9  C   LIG    1        5.797  -2.831  -1.845  0.00  0.00    +0.182 C 
ATOM     10  O   LIG    1        4.992  -3.803  -2.523  0.00  0.00    -0.376 OA
ATOM     11  C   LIG    1        3.610  -3.799  -2.142  0.00  0.00    +0.182 C 
ATOM     12  C   LIG    1        5.677  -4.301   0.273  0.00  0.00    +0.027 C 
ATOM     13  C   LIG    1        4.282  -4.915   0.086  0.00  0.00    +0.027 C 
ATOM     14  C   LIG    1        3.473  -3.797  -0.592  0.00  0.00    +0.102 C 
ENDBRANCH   3   7
BRANCH   1  16
ATOM     15  C   LIG    1       -0.686  -1.010   0.334  0.00  0.00    +0.013 A 
ATOM     16  C   LIG    1        0.155   0.102   0.503  0.00  0.00    +0.019 A 
ATOM     17  C   LIG    1       -0.451   1.357   0.672  0.00  0.00    +0.013 A 
ATOM     18  C   LIG    1       -1.836   1.501   0.673  0.00  0.00    +0.024 A 
ATOM     19  C   LIG    1       -2.659   0.380   0.503  0.00  0.00    +0.035 A 
ATOM     20  C   LIG    1       -2.071  -0.874   0.334  0.00  0.00    +0.024 A 
BRANCH  19  21
ATOM     21  N   LIG    1       -4.069   0.404   0.484  0.00  0.00    -0.269 N 
ATOM     22  H   LIG    1       -4.492  -0.501   0.339  0.00  0.00    +0.156 HD
ATOM     23  C   LIG    1       -4.920   1.440   0.633  0.00  0.00    +0.308 C 
ATOM     24  N   LIG    1       -6.191   0.998   0.533  0.00  0.00    -0.269 N 
ATOM     25  H   LIG    1       -6.307   0.011   0.360  0.00  0.00    +0.156 HD
ATOM     26  O   LIG    1       -4.589   2.608   0.828  0.00  0.00    -0.252 OA
BRANCH  24  27
ATOM     27  C   LIG    1       -7.403   1.711   0.629  0.00  0.00    +0.038 A 
ATOM     28  C   LIG    1       -7.519   3.090   0.886  0.00  0.00    +0.043 A 
ATOM     29  C   LIG    1       -8.794   3.655   0.953  0.00  0.00    +0.112 A 
ATOM     30  N   LIG    1       -9.932   2.937   0.782  0.00  0.00    -0.263 NA
ATOM     31  C   LIG    1       -9.809   1.609   0.536  0.00  0.00    +0.112 A 
ATOM     32  C   LIG    1       -8.574   0.964   0.453  0.00  0.00    +0.043 A 
ENDBRANCH  24  27
ENDBRANCH  19  21
ENDBRANCH   1  16
BRANCH   5  33
ATOM     33  N   LIG    1        4.567   1.989   1.063  0.00  0.00    -0.295 N 
ATOM     34  C   LIG    1        6.010   1.842   1.348  0.00  0.00    +0.136 C 
ATOM     35  C   LIG    1        6.824   3.145   1.213  0.00  0.00    +0.179 C 
ATOM     36  O   LIG    1        6.228   4.174   1.983  0.00  0.00    -0.377 OA
ATOM     37  C   LIG    1        4.918   4.464   1.527  0.00  0.00    +0.179 C 
ATOM     38  C   LIG    1        4.016   3.220   1.668  0.00  0.00    +0.136 C 
ENDBRANCH   5  33
TORSDOF 5
