REMARK  Name = DB13115
REMARK                            x       y       z     vdW  Elec       q    Type
REMARK                         _______ _______ _______ _____ _____    ______ ____
ROOT
ATOM      1  O   LIG    1        1.455   0.912  -0.442  0.00  0.00    -0.490 OA
ENDROOT
BRANCH   1   5
ATOM      2  C   LIG    1       -2.668   0.271  -0.128  0.00  0.00    -0.044 A 
ATOM      3  C   LIG    1       -2.068   1.232   0.694  0.00  0.00    +0.007 A 
ATOM      4  C   LIG    1       -0.699   1.469   0.613  0.00  0.00    +0.046 A 
ATOM      5  C   LIG    1        0.092   0.749  -0.295  0.00  0.00    +0.121 A 
ATOM      6  C   LIG    1       -0.512  -0.199  -1.120  0.00  0.00    +0.046 A 
ATOM      7  C   LIG    1       -1.881  -0.437  -1.039  0.00  0.00    +0.007 A 
BRANCH   2   8
ATOM      8  C   LIG    1       -4.171  -0.021  -0.080  0.00  0.00    +0.078 C 
BRANCH   8   9
ATOM      9  C   LIG    1       -4.917   0.386   1.221  0.00  0.00    +0.230 C 
BRANCH   9  10
ATOM     10  C   LIG    1       -6.408  -0.055   1.142  0.00  0.00    +0.334 C 
ATOM     11  O   LIG    1       -7.205   0.741   0.595  0.00  0.00    -0.248 OA
BRANCH  10  12
ATOM     12  O   LIG    1       -6.740  -1.174   1.601  0.00  0.00    -0.479 OA
ATOM     13  H   LIG    1       -6.096  -1.726   2.000  0.00  0.00    +0.295 HD
ENDBRANCH  10  12
ENDBRANCH   9  10
BRANCH   9  14
ATOM     14  O   LIG    1       -4.254  -0.232   2.335  0.00  0.00    -0.365 OA
BRANCH  14  16
ATOM     15  C   LIG    1       -3.733  -0.444   4.671  0.00  0.00    +0.034 C 
ATOM     16  C   LIG    1       -4.549   0.312   3.619  0.00  0.00    +0.157 C 
ENDBRANCH  14  16
ENDBRANCH   9  14
ENDBRANCH   8   9
ENDBRANCH   2   8
ENDBRANCH   1   5
BRANCH   1  17
ATOM     17  C   LIG    1        2.150   1.828   0.399  0.00  0.00    +0.250 C 
BRANCH  17  18
ATOM     18  C   LIG    1        3.668   1.738   0.149  0.00  0.00    +0.163 C 
BRANCH  18  19
ATOM     19  N   LIG    1        4.028   1.955  -1.260  0.00  0.00    -0.341 N 
ATOM     20  C   LIG    1        4.524   0.991  -2.130  0.00  0.00    +0.049 A 
ATOM     21  C   LIG    1        4.775   1.614  -3.342  0.00  0.00    +0.028 A 
ATOM     22  C   LIG    1        4.425   2.953  -3.221  0.00  0.00    +0.023 A 
ATOM     23  C   LIG    1        3.973   3.170  -1.929  0.00  0.00    +0.016 A 
ATOM     24  C   LIG    1        3.500   4.456  -1.282  0.00  0.00    +0.063 C 
BRANCH  20  25
ATOM     25  C   LIG    1        4.763  -0.438  -1.782  0.00  0.00    -0.001 A 
ATOM     26  C   LIG    1        6.067  -0.936  -1.807  0.00  0.00    +0.011 A 
ATOM     27  C   LIG    1        6.313  -2.268  -1.483  0.00  0.00    +0.015 A 
ATOM     28  C   LIG    1        5.249  -3.107  -1.141  0.00  0.00    +0.008 A 
ATOM     29  C   LIG    1        3.944  -2.616  -1.133  0.00  0.00    +0.015 A 
ATOM     30  C   LIG    1        3.701  -1.285  -1.456  0.00  0.00    +0.011 A 
BRANCH  28  31
ATOM     31  S   LIG    1        5.513  -4.808  -0.713  0.00  0.00    -0.129 S 
ATOM     32  C   LIG    1        7.292  -5.158  -0.770  0.00  0.00    +0.090 C 
ENDBRANCH  28  31
ENDBRANCH  20  25
ENDBRANCH  18  19
ENDBRANCH  17  18
ENDBRANCH   1  17
TORSDOF 12
