REMARK  Name = DB13274
REMARK                            x       y       z     vdW  Elec       q    Type
REMARK                         _______ _______ _______ _____ _____    ______ ____
ROOT
ATOM      1  C   LIG    1        1.606   0.168   0.237  0.00  0.00    +0.169 C 
ATOM      2  C   LIG    1        1.851   0.685  -1.207  0.00  0.00    +0.175 C 
ATOM      3  C   LIG    1        3.332   0.553  -1.668  0.00  0.00    +0.169 C 
ATOM      4  C   LIG    1        3.882  -0.876  -1.421  0.00  0.00    +0.084 C 
ATOM      5  C   LIG    1        3.673  -1.294   0.047  0.00  0.00    +0.042 C 
ATOM      6  C   LIG    1        2.188  -1.254   0.449  0.00  0.00    +0.084 C 
ENDROOT
BRANCH   4   7
ATOM      7  N   LIG    1        5.268  -1.038  -1.823  0.00  0.00    -0.325 NA
ATOM      8  H   LIG    1        5.853  -0.423  -1.276  0.00  0.00    +0.119 HD
ATOM      9  H   LIG    1        5.370  -0.748  -2.785  0.00  0.00    +0.119 HD
ENDBRANCH   4   7
BRANCH   6  10
ATOM     10  N   LIG    1        1.981  -1.773   1.790  0.00  0.00    -0.325 NA
ATOM     11  H   LIG    1        0.997  -1.734   2.017  0.00  0.00    +0.119 HD
ATOM     12  H   LIG    1        2.453  -1.183   2.460  0.00  0.00    +0.119 HD
ENDBRANCH   6  10
BRANCH   2  13
ATOM     13  O   LIG    1        1.411   2.026  -1.310  0.00  0.00    -0.387 OA
ATOM     14  H   LIG    1        1.929   2.566  -0.708  0.00  0.00    +0.210 HD
ENDBRANCH   2  13
BRANCH   1  15
ATOM     15  O   LIG    1        0.195   0.134   0.489  0.00  0.00    -0.341 OA
BRANCH  15  20
ATOM     16  C   LIG    1       -3.643   2.891   0.105  0.00  0.00    +0.045 C 
ATOM     17  C   LIG    1       -2.663   2.247   1.112  0.00  0.00    +0.104 C 
ATOM     18  C   LIG    1       -2.725   0.691   1.091  0.00  0.00    +0.121 C 
ATOM     19  C   LIG    1       -1.638   0.107   2.033  0.00  0.00    +0.190 C 
ATOM     20  C   LIG    1       -0.243   0.681   1.705  0.00  0.00    +0.281 C 
ATOM     21  O   LIG    1       -0.235   2.088   1.660  0.00  0.00    -0.346 OA
ATOM     22  C   LIG    1       -1.216   2.678   0.797  0.00  0.00    +0.199 C 
BRANCH  18  23
ATOM     23  N   LIG    1       -4.056   0.078   1.192  0.00  0.00    -0.311 NA
ATOM     24  H   LIG    1       -4.047  -0.884   0.883  0.00  0.00    +0.122 HD
ATOM     25  C   LIG    1       -4.738   0.228   2.470  0.00  0.00    +0.101 C 
ENDBRANCH  18  23
BRANCH  17  26
ATOM     26  O   LIG    1       -2.988   2.783   2.386  0.00  0.00    -0.385 OA
ATOM     27  H   LIG    1       -2.258   2.607   2.983  0.00  0.00    +0.210 HD
ENDBRANCH  17  26
BRANCH  19  28
ATOM     28  O   LIG    1       -1.591  -1.310   2.017  0.00  0.00    -0.385 OA
ATOM     29  H   LIG    1       -1.613  -1.603   1.103  0.00  0.00    +0.210 HD
ENDBRANCH  19  28
ENDBRANCH  15  20
ENDBRANCH   1  15
BRANCH   3  30
ATOM     30  O   LIG    1        3.438   0.844  -3.069  0.00  0.00    -0.342 OA
BRANCH  30  31
ATOM     31  C   LIG    1        3.820   2.149  -3.418  0.00  0.00    +0.268 C 
ATOM     32  O   LIG    1        5.190   2.380  -3.190  0.00  0.00    -0.345 OA
ATOM     33  C   LIG    1        6.106   1.659  -4.031  0.00  0.00    +0.135 C 
ATOM     34  C   LIG    1        5.804   1.806  -5.538  0.00  0.00    +0.034 C 
ATOM     35  C   LIG    1        4.319   1.575  -5.827  0.00  0.00    +0.026 C 
ATOM     36  C   LIG    1        3.442   2.414  -4.886  0.00  0.00    +0.107 C 
BRANCH  36  37
ATOM     37  N   LIG    1        2.022   2.284  -5.158  0.00  0.00    -0.323 NA
ATOM     38  H   LIG    1        1.745   1.317  -5.067  0.00  0.00    +0.119 HD
ATOM     39  H   LIG    1        1.828   2.558  -6.110  0.00  0.00    +0.119 HD
ENDBRANCH  36  37
BRANCH  33  40
ATOM     40  C   LIG    1        7.559   2.013  -3.654  0.00  0.00    +0.112 C 
BRANCH  40  41
ATOM     41  N   LIG    1        7.829   3.434  -3.840  0.00  0.00    -0.317 NA
ATOM     42  H   LIG    1        7.172   3.979  -3.299  0.00  0.00    +0.122 HD
ATOM     43  C   LIG    1        9.190   3.758  -3.444  0.00  0.00    +0.101 C 
ENDBRANCH  40  41
ENDBRANCH  33  40
ENDBRANCH  30  31
ENDBRANCH   3  30
TORSDOF 13
