REMARK  Name = DB13179
REMARK                            x       y       z     vdW  Elec       q    Type
REMARK                         _______ _______ _______ _____ _____    ______ ____
ROOT
ATOM      1  C   LIG    1       -1.038   2.368  -2.833  0.00  0.00    +0.151 C 
ATOM      2  C   LIG    1       -2.575   2.476  -3.005  0.00  0.00    +0.173 C 
ATOM      3  O   LIG    1       -3.188   1.580  -3.586  0.00  0.00    -0.294 OA
ATOM      4  C   LIG    1       -3.383   3.664  -2.417  0.00  0.00    +0.096 C 
ATOM      5  C   LIG    1       -3.267   4.931  -3.299  0.00  0.00    +0.019 C 
ATOM      6  C   LIG    1       -3.211   3.872  -0.868  0.00  0.00    +0.193 C 
ATOM      7  C   LIG    1       -4.335   3.227   0.011  0.00  0.00    +0.068 C 
ATOM      8  C   LIG    1       -4.549   1.726  -0.283  0.00  0.00    +0.015 C 
ATOM      9  C   LIG    1       -4.127   3.522   1.534  0.00  0.00    +0.180 C 
ATOM     10  C   LIG    1       -5.291   3.098   2.460  0.00  0.00    +0.052 C 
ATOM     11  O   LIG    1       -2.813   3.172   2.000  0.00  0.00    -0.461 OA
ATOM     12  C   LIG    1       -2.405   1.919   2.346  0.00  0.00    +0.313 C 
ATOM     13  O   LIG    1       -3.136   0.935   2.465  0.00  0.00    -0.250 OA
ATOM     14  C   LIG    1       -0.879   1.814   2.582  0.00  0.00    +0.124 C 
ATOM     15  C   LIG    1       -0.052   2.986   1.996  0.00  0.00    +0.022 C 
ATOM     16  C   LIG    1       -0.257   0.392   2.313  0.00  0.00    +0.140 C 
ATOM     17  C   LIG    1       -0.564  -0.291   0.930  0.00  0.00    +0.045 C 
ATOM     18  C   LIG    1        0.023  -1.727   0.867  0.00  0.00    +0.013 C 
ATOM     19  C   LIG    1       -0.275   0.598  -0.331  0.00  0.00    +0.130 C 
ATOM     20  C   LIG    1       -0.563  -0.034  -1.737  0.00  0.00    +0.018 C 
ATOM     21  C   LIG    1       -1.922  -0.767  -1.827  0.00  0.00    +0.010 C 
ATOM     22  C   LIG    1       -0.388   0.954  -2.931  0.00  0.00    +0.051 C 
ATOM     23  O   LIG    1       -0.388   3.295  -2.000  0.00  0.00    -0.360 OA
ATOM     24  C   LIG    1       -0.184   3.485  -3.370  0.00  0.00    +0.204 C 
ENDROOT
BRANCH   6  25
ATOM     25  O   LIG    1       -3.195   5.271  -0.544  0.00  0.00    -0.460 OA
BRANCH  25  26
ATOM     26  C   LIG    1       -2.059   5.939  -0.239  0.00  0.00    +0.304 C 
ATOM     27  O   LIG    1       -0.922   5.472  -0.183  0.00  0.00    -0.251 OA
ATOM     28  C   LIG    1       -2.322   7.410   0.051  0.00  0.00    +0.136 C 
ENDBRANCH  25  26
ENDBRANCH   6  25
BRANCH  16  29
ATOM     29  O   LIG    1       -0.665  -0.556   3.312  0.00  0.00    -0.347 OA
BRANCH  29  30
ATOM     30  C   LIG    1       -0.255  -0.382   4.643  0.00  0.00    +0.254 C 
ATOM     31  O   LIG    1        1.141  -0.289   4.794  0.00  0.00    -0.345 OA
ATOM     32  C   LIG    1        1.877  -1.455   4.409  0.00  0.00    +0.161 C 
ATOM     33  C   LIG    1        1.411  -2.719   5.185  0.00  0.00    +0.233 C 
ATOM     34  C   LIG    1       -0.131  -2.883   5.113  0.00  0.00    +0.166 C 
ATOM     35  C   LIG    1        3.364  -1.137   4.634  0.00  0.00    +0.042 C 
ATOM     36  C   LIG    1       -0.805  -1.546   5.470  0.00  0.00    +0.096 C 
BRANCH  34  37
ATOM     37  O   LIG    1       -0.659  -3.839   6.034  0.00  0.00    -0.376 OA
ATOM     38  C   LIG    1       -0.527  -5.209   5.683  0.00  0.00    +0.194 C 
ENDBRANCH  34  37
BRANCH  33  39
ATOM     39  O   LIG    1        2.175  -3.891   4.861  0.00  0.00    -0.456 OA
BRANCH  39  40
ATOM     40  C   LIG    1        2.183  -4.481   3.637  0.00  0.00    +0.304 C 
ATOM     41  C   LIG    1        3.110  -5.688   3.588  0.00  0.00    +0.136 C 
ATOM     42  O   LIG    1        1.536  -4.134   2.649  0.00  0.00    -0.251 OA
ENDBRANCH  39  40
ENDBRANCH  33  39
ENDBRANCH  29  30
ENDBRANCH  16  29
BRANCH  19  43
ATOM     43  O   LIG    1        0.967   1.315  -0.239  0.00  0.00    -0.344 OA
BRANCH  43  44
ATOM     44  C   LIG    1        2.189   0.750  -0.617  0.00  0.00    +0.293 C 
ATOM     45  O   LIG    1        2.583  -0.239   0.286  0.00  0.00    -0.345 OA
ATOM     46  C   LIG    1        3.770  -0.922  -0.115  0.00  0.00    +0.120 C 
ATOM     47  C   LIG    1        4.044  -2.086   0.848  0.00  0.00    +0.038 C 
ATOM     48  C   LIG    1        4.955   0.061  -0.198  0.00  0.00    +0.054 C 
ATOM     49  C   LIG    1        4.633   1.340  -1.022  0.00  0.00    +0.104 C 
ATOM     50  C   LIG    1        3.237   1.877  -0.569  0.00  0.00    +0.249 C 
BRANCH  49  51
ATOM     51  N   LIG    1        5.695   2.376  -1.071  0.00  0.00    -0.302 NA
ATOM     52  C   LIG    1        7.059   1.888  -0.853  0.00  0.00    +0.105 C 
ATOM     53  C   LIG    1        5.705   3.102  -2.345  0.00  0.00    +0.105 C 
ENDBRANCH  49  51
BRANCH  50  54
ATOM     54  O   LIG    1        2.789   3.003  -1.333  0.00  0.00    -0.455 OA
BRANCH  54  55
ATOM     55  C   LIG    1        2.600   4.223  -0.768  0.00  0.00    +0.304 C 
ATOM     56  O   LIG    1        2.701   4.503   0.427  0.00  0.00    -0.251 OA
ATOM     57  C   LIG    1        2.248   5.295  -1.794  0.00  0.00    +0.136 C 
ENDBRANCH  54  55
ENDBRANCH  50  54
ENDBRANCH  43  44
ENDBRANCH  19  43
TORSDOF 12
