REMARK  Name = DB13384
REMARK                            x       y       z     vdW  Elec       q    Type
REMARK                         _______ _______ _______ _____ _____    ______ ____
ROOT
ATOM      1  C   LIG    1       -4.953   3.106   3.335  0.00  0.00    +0.021 C 
ATOM      2  C   LIG    1       -3.662   2.626   2.611  0.00  0.00    +0.016 C 
ATOM      3  C   LIG    1       -2.453   2.618   3.584  0.00  0.00    +0.021 C 
ATOM      4  C   LIG    1       -3.253   3.558   1.435  0.00  0.00    -0.030 A 
ATOM      5  C   LIG    1       -3.558   4.932   1.426  0.00  0.00    +0.005 A 
ATOM      6  C   LIG    1       -3.111   5.781   0.419  0.00  0.00    +0.000 A 
ATOM      7  C   LIG    1       -2.304   5.284  -0.594  0.00  0.00    +0.001 A 
ATOM      8  C   LIG    1       -1.930   3.946  -0.580  0.00  0.00    +0.009 A 
ATOM      9  C   LIG    1       -2.374   3.079   0.433  0.00  0.00    -0.014 A 
ATOM     10  C   LIG    1       -1.904   1.664   0.462  0.00  0.00    -0.014 C 
ATOM     11  C   LIG    1       -0.678   1.317  -0.015  0.00  0.00    -0.020 C 
ATOM     12  C   LIG    1       -2.904   0.728   1.055  0.00  0.00    -0.014 A 
ATOM     13  C   LIG    1       -3.010  -0.589   0.577  0.00  0.00    +0.009 A 
ATOM     14  C   LIG    1       -3.887  -1.497   1.156  0.00  0.00    +0.001 A 
ATOM     15  C   LIG    1       -4.672  -1.102   2.230  0.00  0.00    +0.000 A 
ATOM     16  C   LIG    1       -4.604   0.210   2.688  0.00  0.00    +0.005 A 
ATOM     17  C   LIG    1       -3.780   1.173   2.075  0.00  0.00    -0.030 A 
ENDROOT
BRANCH  11  18
ATOM     18  C   LIG    1        0.020  -0.035   0.028  0.00  0.00    +0.009 C 
BRANCH  18  19
ATOM     19  C   LIG    1        1.533   0.079   0.295  0.00  0.00    -0.075 C 
BRANCH  19  20
ATOM     20  N   LIG    1        2.244  -1.289   0.160  0.00  0.00    +0.376 N 
ATOM     21  H   LIG    1        1.990  -1.668  -0.742  0.00  0.00    -0.083 HD
ATOM     22  C   LIG    1        3.776  -1.121   0.156  0.00  0.00    -0.097 C 
ATOM     23  C   LIG    1        1.814  -2.315   1.229  0.00  0.00    -0.097 C 
ENDBRANCH  19  20
ENDBRANCH  18  19
ENDBRANCH  11  18
TORSDOF 3
