REMARK  Name = DB13170
REMARK                            x       y       z     vdW  Elec       q    Type
REMARK                         _______ _______ _______ _____ _____    ______ ____
ROOT
ATOM      1  CA  CYS A  4        1.539  -0.359  -0.266  0.00  0.00    +0.169 C 
ATOM      2  C   CYS A  4        2.106  -0.256  -1.696  0.00  0.00    +0.235 C 
ATOM      3  N   GLU A  5        1.253   0.113  -2.670  0.00  0.00    -0.302 N 
ATOM      4  H   GLU A  5        0.286   0.269  -2.425  0.00  0.00    +0.150 HD
ATOM      5  CA  GLU A  5        1.597   0.419  -4.060  0.00  0.00    +0.159 C 
ATOM      6  C   GLU A  5        2.479   1.675  -4.185  0.00  0.00    +0.234 C 
ATOM      7  N   LEU A  6        2.182   2.694  -3.358  0.00  0.00    -0.302 N 
ATOM      8  H   LEU A  6        1.410   2.594  -2.715  0.00  0.00    +0.150 HD
ATOM      9  CA  LEU A  6        2.913   3.959  -3.266  0.00  0.00    +0.159 C 
ATOM     10  C   LEU A  6        4.204   3.813  -2.437  0.00  0.00    +0.234 C 
ATOM     11  N   CYS A  7        4.210   2.857  -1.494  0.00  0.00    -0.302 N 
ATOM     12  H   CYS A  7        3.380   2.296  -1.365  0.00  0.00    +0.150 HD
ATOM     13  CA  CYS A  7        5.347   2.503  -0.644  0.00  0.00    +0.169 C 
ATOM     14  C   CYS A  7        6.315   1.566  -1.389  0.00  0.00    +0.235 C 
ATOM     15  N   VAL A  8        7.539   1.421  -0.853  0.00  0.00    -0.302 N 
ATOM     16  H   VAL A  8        7.780   1.916  -0.007  0.00  0.00    +0.150 HD
ATOM     17  CA  VAL A  8        8.594   0.587  -1.440  0.00  0.00    +0.161 C 
ATOM     18  C   VAL A  8        8.461  -0.868  -0.927  0.00  0.00    +0.234 C 
ATOM     19  N   ASN A  9        7.420  -1.562  -1.427  0.00  0.00    -0.302 N 
ATOM     20  H   ASN A  9        6.807  -1.090  -2.078  0.00  0.00    +0.150 HD
ATOM     21  CA  ASN A  9        7.071  -2.963  -1.165  0.00  0.00    +0.168 C 
ATOM     22  C   ASN A  9        6.836  -3.230   0.341  0.00  0.00    +0.234 C 
ATOM     23  N   VAL A 10        7.772  -3.948   0.989  0.00  0.00    -0.302 N 
ATOM     24  H   VAL A 10        8.572  -4.273   0.467  0.00  0.00    +0.150 HD
ATOM     25  CA  VAL A 10        7.769  -4.321   2.408  0.00  0.00    +0.161 C 
ATOM     26  C   VAL A 10        7.877  -3.114   3.372  0.00  0.00    +0.234 C 
ATOM     27  N   ALA A 11        8.421  -1.981   2.888  0.00  0.00    -0.303 N 
ATOM     28  H   ALA A 11        8.762  -1.977   1.936  0.00  0.00    +0.149 HD
ATOM     29  CA  ALA A 11        8.547  -0.705   3.602  0.00  0.00    +0.156 C 
ATOM     30  C   ALA A 11        7.217   0.016   3.915  0.00  0.00    +0.234 C 
ATOM     31  N   CYS A 12        6.068  -0.592   3.561  0.00  0.00    -0.302 N 
ATOM     32  H   CYS A 12        6.128  -1.483   3.090  0.00  0.00    +0.150 HD
ATOM     33  CA  CYS A 12        4.704  -0.130   3.838  0.00  0.00    +0.169 C 
ATOM     34  C   CYS A 12        4.386   0.082   5.334  0.00  0.00    +0.235 C 
ATOM     35  N   THR A 13        5.095  -0.638   6.220  0.00  0.00    -0.300 N 
ATOM     36  H   THR A 13        5.762  -1.316   5.881  0.00  0.00    +0.150 HD
ATOM     37  CA  THR A 13        5.140  -0.368   7.656  0.00  0.00    +0.187 C 
ATOM     38  C   THR A 13        6.049   0.852   7.910  0.00  0.00    +0.236 C 
ATOM     39  N   GLY A 14        5.451   1.939   8.423  0.00  0.00    -0.305 N 
ATOM     40  H   GLY A 14        4.463   1.906   8.629  0.00  0.00    +0.149 HD
ATOM     41  CA  GLY A 14        6.134   3.210   8.678  0.00  0.00    +0.200 C 
ATOM     42  C   GLY A 14        6.146   4.145   7.453  0.00  0.00    +0.231 C 
ATOM     43  N   CYS A 15        5.508   3.759   6.331  0.00  0.00    -0.302 N 
ATOM     44  H   CYS A 15        5.062   2.854   6.313  0.00  0.00    +0.150 HD
ATOM     45  CA  CYS A 15        5.342   4.569   5.116  0.00  0.00    +0.169 C 
ATOM     46  CB  CYS A 15        4.848   3.631   3.998  0.00  0.00    +0.112 C 
ATOM     47  SG  CYS A 15        4.422   4.319   2.375  0.00  0.00    -0.091 S 
ATOM     48  SG  CYS A  7        3.487   2.749   1.474  0.00  0.00    -0.091 S 
ATOM     49  O   GLY A 14        6.726   5.226   7.544  0.00  0.00    -0.274 OA
ATOM     50  O   THR A 13        7.244   0.789   7.619  0.00  0.00    -0.274 OA
ATOM     51  O   CYS A 12        3.550   0.928   5.651  0.00  0.00    -0.274 OA
ATOM     52  CB  CYS A 12        3.721  -1.107   3.171  0.00  0.00    +0.112 C 
ATOM     53  SG  CYS A 12        1.998  -0.555   3.067  0.00  0.00    -0.091 S 
ATOM     54  SG  CYS A  4        1.092  -2.037   1.996  0.00  0.00    -0.091 S 
ATOM     55  O   ALA A 11        7.267   1.103   4.489  0.00  0.00    -0.274 OA
ATOM     56  CB  ALA A 11        9.476   0.217   2.795  0.00  0.00    +0.038 C 
ATOM     57  O   VAL A 10        7.418  -3.217   4.511  0.00  0.00    -0.274 OA
ATOM     58  O   ASN A  9        5.820  -2.782   0.872  0.00  0.00    -0.274 OA
ATOM     59  O   VAL A  8        9.253  -1.320  -0.099  0.00  0.00    -0.274 OA
ATOM     60  O   CYS A  7        5.945   0.989  -2.413  0.00  0.00    -0.274 OA
ATOM     61  CB  CYS A  7        4.803   1.826   0.627  0.00  0.00    +0.112 C 
ATOM     62  O   LEU A  6        5.157   4.553  -2.678  0.00  0.00    -0.274 OA
ATOM     63  O   GLU A  5        3.396   1.687  -5.004  0.00  0.00    -0.274 OA
ATOM     64  O   CYS A  4        3.301  -0.486  -1.877  0.00  0.00    -0.274 OA
ATOM     65  CB  CYS A  4        1.656  -1.793   0.284  0.00  0.00    +0.112 C 
ENDROOT
BRANCH  45  66
ATOM     66  C   CYS A 15        4.399   5.777   5.305  0.00  0.00    +0.235 C 
ATOM     67  N   LEU A 16        3.462   5.675   6.262  0.00  0.00    -0.301 N 
ATOM     68  H   LEU A 16        3.411   4.830   6.813  0.00  0.00    +0.150 HD
ATOM     69  O   CYS A 15        4.552   6.768   4.592  0.00  0.00    -0.274 OA
BRANCH  67  70
ATOM     70  CA  LEU A 16        2.479   6.705   6.597  0.00  0.00    +0.182 C 
BRANCH  70  71
ATOM     71  C   LEU A 16        2.182   6.667   8.107  0.00  0.00    +0.325 C 
ATOM     72  O   LEU A 16        2.302   7.632   8.833  0.00  0.00    -0.249 OA
BRANCH  71  73
ATOM     73  OXT LEU A 16        1.763   5.423   8.491  0.00  0.00    -0.479 OA
ATOM     74  HXT LEU A 16        1.571   5.378   9.430  0.00  0.00    +0.295 HD
ENDBRANCH  71  73
ENDBRANCH  70  71
BRANCH  70  75
ATOM     75  CB  LEU A 16        1.234   6.539   5.688  0.00  0.00    +0.036 C 
BRANCH  75  76
ATOM     76  CG  LEU A 16        0.160   7.654   5.778  0.00  0.00    -0.015 C 
ATOM     77  CD2 LEU A 16       -0.686   7.723   4.484  0.00  0.00    +0.007 C 
ATOM     78  CD1 LEU A 16       -0.739   7.540   7.029  0.00  0.00    +0.007 C 
ENDBRANCH  75  76
ENDBRANCH  70  75
ENDBRANCH  67  70
ENDBRANCH  45  66
BRANCH   1  80
ATOM     79  C   GLU A  3       -0.232   1.383  -0.132  0.00  0.00    +0.234 C 
ATOM     80  N   CYS A  4        0.151   0.096  -0.141  0.00  0.00    -0.302 N 
ATOM     81  H   CYS A  4       -0.545  -0.629  -0.054  0.00  0.00    +0.150 HD
ATOM     82  O   GLU A  3        0.536   2.341  -0.224  0.00  0.00    -0.274 OA
BRANCH  79  83
ATOM     83  CA  GLU A  3       -1.744   1.626  -0.044  0.00  0.00    +0.159 C 
BRANCH  83  85
ATOM     84  C   ASP A  2       -1.996   2.233   2.348  0.00  0.00    +0.234 C 
ATOM     85  N   GLU A  3       -2.066   2.547   1.044  0.00  0.00    -0.302 N 
ATOM     86  H   GLU A  3       -2.300   3.490   0.771  0.00  0.00    +0.150 HD
ATOM     87  O   ASP A  2       -1.720   1.115   2.786  0.00  0.00    -0.274 OA
BRANCH  84  88
ATOM     88  CA  ASP A  2       -2.257   3.390   3.332  0.00  0.00    +0.169 C 
BRANCH  88  90
ATOM     89  C   ASN A  1       -4.656   2.958   3.858  0.00  0.00    +0.231 C 
ATOM     90  N   ASP A  2       -3.369   3.076   4.230  0.00  0.00    -0.302 N 
ATOM     91  H   ASP A  2       -3.115   2.880   5.187  0.00  0.00    +0.150 HD
ATOM     92  O   ASN A  1       -5.061   3.172   2.712  0.00  0.00    -0.274 OA
BRANCH  89  93
ATOM     93  CA  ASN A  1       -5.633   2.499   4.969  0.00  0.00    +0.146 C 
BRANCH  93  94
ATOM     94  N   ASN A  1       -6.891   3.258   4.826  0.00  0.00    -0.320 NA
ATOM     95  H1  ASN A  1       -7.262   3.166   3.890  0.00  0.00    +0.119 HD
ATOM     96  H2  ASN A  1       -6.744   4.244   4.990  0.00  0.00    +0.119 HD
ENDBRANCH  93  94
BRANCH  93  97
ATOM     97  CB  ASN A  1       -5.828   0.956   5.020  0.00  0.00    +0.123 C 
BRANCH  97  98
ATOM     98  CG  ASN A  1       -6.498   0.311   3.794  0.00  0.00    +0.212 C 
ATOM     99  OD1 ASN A  1       -5.838   0.036   2.795  0.00  0.00    -0.276 OA
ATOM    100  ND2 ASN A  1       -7.806   0.057   3.878  0.00  0.00    -0.329 N 
ATOM    101 HD21 ASN A  1       -8.320   0.293   4.714  0.00  0.00    +0.145 HD
ATOM    102 HD22 ASN A  1       -8.291  -0.367   3.100  0.00  0.00    +0.145 HD
ENDBRANCH  97  98
ENDBRANCH  93  97
ENDBRANCH  89  93
ENDBRANCH  88  90
BRANCH  88 103
ATOM    103  CB  ASP A  2       -1.031   3.766   4.203  0.00  0.00    +0.152 C 
BRANCH 103 104
ATOM    104  CG  ASP A  2        0.290   3.902   3.436  0.00  0.00    +0.307 C 
ATOM    105  OD2 ASP A  2        0.428   4.580   2.421  0.00  0.00    -0.251 OA
BRANCH 104 106
ATOM    106  OD1 ASP A  2        1.299   3.197   4.021  0.00  0.00    -0.481 OA
ATOM    107  HD1 ASP A  2        2.125   3.274   3.538  0.00  0.00    +0.295 HD
ENDBRANCH 104 106
ENDBRANCH 103 104
ENDBRANCH  88 103
ENDBRANCH  84  88
ENDBRANCH  83  85
BRANCH  83 108
ATOM    108  CB  GLU A  3       -2.270   2.183  -1.382  0.00  0.00    +0.043 C 
BRANCH 108 109
ATOM    109  CG  GLU A  3       -3.804   2.218  -1.478  0.00  0.00    +0.123 C 
BRANCH 109 110
ATOM    110  CD  GLU A  3       -4.258   2.639  -2.874  0.00  0.00    +0.305 C 
ATOM    111  OE2 GLU A  3       -4.563   1.845  -3.761  0.00  0.00    -0.251 OA
BRANCH 110 112
ATOM    112  OE1 GLU A  3       -4.267   3.995  -3.027  0.00  0.00    -0.481 OA
ATOM    113  HE1 GLU A  3       -4.550   4.265  -3.904  0.00  0.00    +0.295 HD
ENDBRANCH 110 112
ENDBRANCH 109 110
ENDBRANCH 108 109
ENDBRANCH  83 108
ENDBRANCH  79  83
ENDBRANCH   1  80
BRANCH  17 114
ATOM    114  CB  VAL A  8       10.013   1.171  -1.152  0.00  0.00    +0.012 C 
ATOM    115  CG2 VAL A  8       11.158   0.381  -1.826  0.00  0.00    +0.009 C 
ATOM    116  CG1 VAL A  8       10.112   2.646  -1.589  0.00  0.00    +0.009 C 
ENDBRANCH  17 114
BRANCH  25 117
ATOM    117  CB  VAL A 10        8.928  -5.328   2.691  0.00  0.00    +0.012 C 
ATOM    118  CG2 VAL A 10        9.163  -5.686   4.175  0.00  0.00    +0.009 C 
ATOM    119  CG1 VAL A 10        8.735  -6.629   1.886  0.00  0.00    +0.009 C 
ENDBRANCH  25 117
BRANCH  37 120
ATOM    120  CB  THR A 13        5.704  -1.591   8.429  0.00  0.00    +0.141 C 
ATOM    121  CG2 THR A 13        5.916  -1.379   9.941  0.00  0.00    +0.040 C 
BRANCH 120 122
ATOM    122  OG1 THR A 13        4.809  -2.675   8.271  0.00  0.00    -0.390 OA
ATOM    123  HG1 THR A 13        4.755  -2.891   7.338  0.00  0.00    +0.210 HD
ENDBRANCH 120 122
ENDBRANCH  37 120
BRANCH   9 124
ATOM    124  CB  LEU A  6        1.997   5.045  -2.649  0.00  0.00    +0.034 C 
BRANCH 124 125
ATOM    125  CG  LEU A  6        0.852   5.547  -3.566  0.00  0.00    -0.015 C 
ATOM    126  CD2 LEU A  6       -0.260   4.500  -3.797  0.00  0.00    +0.007 C 
ATOM    127  CD1 LEU A  6        0.274   6.883  -3.047  0.00  0.00    +0.007 C 
ENDBRANCH 124 125
ENDBRANCH   9 124
BRANCH   5 128
ATOM    128  CB  GLU A  5        0.295   0.618  -4.866  0.00  0.00    +0.043 C 
BRANCH 128 129
ATOM    129  CG  GLU A  5       -0.657  -0.596  -4.849  0.00  0.00    +0.123 C 
BRANCH 129 130
ATOM    130  CD  GLU A  5       -1.978  -0.326  -5.573  0.00  0.00    +0.305 C 
ATOM    131  OE2 GLU A  5       -2.279   0.743  -6.102  0.00  0.00    -0.251 OA
BRANCH 130 132
ATOM    132  OE1 GLU A  5       -2.797  -1.417  -5.552  0.00  0.00    -0.481 OA
ATOM    133  HE1 GLU A  5       -3.632  -1.259  -5.998  0.00  0.00    +0.295 HD
ENDBRANCH 130 132
ENDBRANCH 129 130
ENDBRANCH 128 129
ENDBRANCH   5 128
BRANCH  21 134
ATOM    134  CB  ASN A  9        8.115  -3.898  -1.844  0.00  0.00    +0.127 C 
BRANCH 134 135
ATOM    135  CG  ASN A  9        7.666  -5.355  -2.025  0.00  0.00    +0.213 C 
ATOM    136  OD1 ASN A  9        6.508  -5.705  -1.807  0.00  0.00    -0.276 OA
ATOM    137  ND2 ASN A  9        8.600  -6.218  -2.432  0.00  0.00    -0.329 N 
ATOM    138 HD21 ASN A  9        9.544  -5.906  -2.606  0.00  0.00    +0.145 HD
ATOM    139 HD22 ASN A  9        8.365  -7.190  -2.572  0.00  0.00    +0.145 HD
ENDBRANCH 134 135
ENDBRANCH  21 134
TORSDOF 34
