REMARK  Name = DB13213
REMARK                            x       y       z     vdW  Elec       q    Type
REMARK                         _______ _______ _______ _____ _____    ______ ____
ROOT
ATOM      1  C   LIG    1        2.081  -0.263  -3.795  0.00  0.00    +0.019 A 
ATOM      2  C   LIG    1        1.302  -0.445  -2.644  0.00  0.00    +0.036 A 
ATOM      3  C   LIG    1        1.857  -0.765  -1.388  0.00  0.00    +0.049 A 
ATOM      4  N   LIG    1        1.076  -0.850  -0.210  0.00  0.00    -0.298 N 
ATOM      5  C   LIG    1        1.579  -0.436   1.046  0.00  0.00    +0.048 A 
ATOM      6  C   LIG    1        2.966  -0.479   1.314  0.00  0.00    +0.034 A 
ATOM      7  S   LIG    1        4.082  -1.230   0.187  0.00  0.00    -0.086 S 
ATOM      8  C   LIG    1        3.479  -0.017   2.529  0.00  0.00    +0.017 A 
ATOM      9  C   LIG    1        2.642   0.560   3.476  0.00  0.00    +0.001 A 
ATOM     10  C   LIG    1        1.283   0.671   3.213  0.00  0.00    +0.002 A 
ATOM     11  C   LIG    1        0.767   0.190   2.012  0.00  0.00    +0.024 A 
ATOM     12  C   LIG    1        3.265  -0.830  -1.316  0.00  0.00    +0.034 A 
ATOM     13  C   LIG    1        4.051  -0.683  -2.459  0.00  0.00    +0.017 A 
ATOM     14  C   LIG    1        3.468  -0.400  -3.688  0.00  0.00    +0.012 A 
ENDROOT
BRANCH   1  15
ATOM     15  C   LIG    1        1.417   0.036  -5.106  0.00  0.00    +0.163 C 
ATOM     16  O   LIG    1        0.201  -0.051  -5.284  0.00  0.00    -0.292 OA
BRANCH  15  17
ATOM     17  C   LIG    1        2.277   0.574  -6.259  0.00  0.00    +0.079 C 
BRANCH  17  19
ATOM     18  C   LIG    1        3.599   0.013  -8.372  0.00  0.00    +0.004 C 
ATOM     19  C   LIG    1        2.757  -0.536  -7.213  0.00  0.00    +0.004 C 
ENDBRANCH  17  19
ENDBRANCH  15  17
ENDBRANCH   1  15
BRANCH   4  20
ATOM     20  C   LIG    1       -0.387  -1.046  -0.331  0.00  0.00    +0.112 C 
BRANCH  20  21
ATOM     21  C   LIG    1       -1.237   0.237  -0.571  0.00  0.00    +0.035 C 
BRANCH  21  22
ATOM     22  C   LIG    1       -2.729   0.086  -0.205  0.00  0.00    +0.086 C 
BRANCH  22  23
ATOM     23  N   LIG    1       -2.939  -0.036   1.240  0.00  0.00    -0.300 NA
ATOM     24  C   LIG    1       -4.249  -0.636   1.527  0.00  0.00    +0.100 C 
ATOM     25  C   LIG    1       -4.431  -0.804   3.057  0.00  0.00    +0.099 C 
ATOM     26  N   LIG    1       -4.347   0.502   3.721  0.00  0.00    -0.303 NA
ATOM     27  C   LIG    1       -3.045   1.112   3.428  0.00  0.00    +0.099 C 
ATOM     28  C   LIG    1       -4.521   0.349   5.161  0.00  0.00    +0.105 C 
ATOM     29  C   LIG    1       -2.877   1.279   1.898  0.00  0.00    +0.100 C 
ENDBRANCH  22  23
ENDBRANCH  21  22
ENDBRANCH  20  21
ENDBRANCH   4  20
TORSDOF 7
