REMARK  Name = DB13078
REMARK                            x       y       z     vdW  Elec       q    Type
REMARK                         _______ _______ _______ _____ _____    ______ ____
ROOT
ATOM      1  C   LIG    1        1.217  -0.396   0.211  0.00  0.00    +0.206 C 
ATOM      2  O   LIG    1        1.816   0.802  -0.312  0.00  0.00    -0.457 OA
ATOM      3  C   LIG    1        3.070   0.800  -0.834  0.00  0.00    +0.310 C 
ATOM      4  O   LIG    1        3.798  -0.185  -0.949  0.00  0.00    -0.251 OA
ATOM      5  C   LIG    1        3.532   2.168  -1.343  0.00  0.00    +0.152 C 
ATOM      6  C   LIG    1        3.362   3.390  -0.392  0.00  0.00    +0.138 C 
ATOM      7  C   LIG    1        4.194   3.447   0.962  0.00  0.00    +0.050 C 
ATOM      8  C   LIG    1        4.093   4.885   1.549  0.00  0.00    +0.021 C 
ATOM      9  C   LIG    1        3.561   2.496   2.010  0.00  0.00    +0.021 C 
ATOM     10  C   LIG    1        5.710   3.130   0.741  0.00  0.00    +0.147 C 
ATOM     11  O   LIG    1        6.257   3.369  -0.338  0.00  0.00    -0.296 OA
ATOM     12  C   LIG    1        6.575   2.626   1.927  0.00  0.00    +0.082 C 
ATOM     13  C   LIG    1        7.497   3.777   2.405  0.00  0.00    +0.018 C 
ATOM     14  C   LIG    1        7.341   1.302   1.582  0.00  0.00    +0.131 C 
ATOM     15  C   LIG    1        6.457   0.014   1.488  0.00  0.00    +0.038 C 
ATOM     16  C   LIG    1        7.217  -1.121   0.765  0.00  0.00    +0.014 C 
ATOM     17  C   LIG    1        5.859  -0.438   2.826  0.00  0.00    -0.025 C 
ATOM     18  C   LIG    1        4.947  -1.411   3.041  0.00  0.00    -0.026 C 
ATOM     19  C   LIG    1        4.261  -2.275   1.994  0.00  0.00    +0.057 C 
ATOM     20  C   LIG    1        2.857  -2.752   2.366  0.00  0.00    -0.073 C 
ATOM     21  C   LIG    1        2.785  -4.160   2.936  0.00  0.00    +0.039 C 
ATOM     22  C   LIG    1        1.738  -2.019   2.178  0.00  0.00    -0.024 C 
ATOM     23  C   LIG    1        1.677  -0.586   1.679  0.00  0.00    +0.076 C 
ENDROOT
BRANCH   1  25
ATOM     24  C   LIG    1       -1.008   0.735  -0.264  0.00  0.00    +0.033 C 
ATOM     25  C   LIG    1       -0.312  -0.388   0.049  0.00  0.00    -0.030 C 
ATOM     26  C   LIG    1       -0.958  -1.756   0.239  0.00  0.00    +0.043 C 
BRANCH  24  31
ATOM     27  C   LIG    1       -5.564   2.787  -1.307  0.00  0.00    +0.089 C 
ATOM     28  C   LIG    1       -4.369   1.952  -0.920  0.00  0.00    +0.135 A 
ATOM     29  O   LIG    1       -4.612   0.707  -0.450  0.00  0.00    -0.359 OA
ATOM     30  N   LIG    1       -3.390   0.106  -0.146  0.00  0.00    -0.079 NA
ATOM     31  C   LIG    1       -2.437   0.968  -0.443  0.00  0.00    +0.107 A 
ATOM     32  C   LIG    1       -3.007   2.148  -0.926  0.00  0.00    +0.075 A 
ENDBRANCH  24  31
ENDBRANCH   1  25
BRANCH   6  33
ATOM     33  O   LIG    1        3.620   4.512  -1.223  0.00  0.00    -0.390 OA
ATOM     34  H   LIG    1        3.497   5.310  -0.705  0.00  0.00    +0.210 HD
ENDBRANCH   6  33
BRANCH  14  35
ATOM     35  O   LIG    1        8.397   1.066   2.501  0.00  0.00    -0.391 OA
ATOM     36  H   LIG    1        8.968   1.838   2.513  0.00  0.00    +0.210 HD
ENDBRANCH  14  35
TORSDOF 4
