REMARK  Name = DB13048
REMARK                            x       y       z     vdW  Elec       q    Type
REMARK                         _______ _______ _______ _____ _____    ______ ____
ROOT
ATOM      1  N   LIG    1        1.264   0.389   0.154  0.00  0.00    -0.206 N 
ATOM      2  H   LIG    1        1.551   1.316  -0.125  0.00  0.00    +0.177 HD
ATOM      3  C   LIG    1        2.158  -0.599   0.359  0.00  0.00    +0.246 C 
ATOM      4  O   LIG    1        1.853  -1.747   0.698  0.00  0.00    -0.273 OA
ENDROOT
BRANCH   1   6
ATOM      5  C   LIG    1       -0.734   1.270   0.078  0.00  0.00    +0.142 C 
ATOM      6  N   LIG    1       -0.062   0.210   0.301  0.00  0.00    -0.188 NA
BRANCH   5   9
ATOM      7  C   LIG    1       -4.306   2.612   0.075  0.00  0.00    -0.002 A 
ATOM      8  C   LIG    1       -2.900   2.569   0.001  0.00  0.00    +0.129 A 
ATOM      9  C   LIG    1       -2.209   1.345   0.154  0.00  0.00    +0.036 A 
ATOM     10  C   LIG    1       -2.966   0.181   0.377  0.00  0.00    +0.013 A 
ATOM     11  C   LIG    1       -4.355   0.223   0.441  0.00  0.00    +0.001 A 
ATOM     12  C   LIG    1       -5.021   1.432   0.287  0.00  0.00    +0.007 A 
BRANCH   8  13
ATOM     13  O   LIG    1       -2.217   3.742  -0.228  0.00  0.00    -0.506 OA
ATOM     14  H   LIG    1       -2.800   4.501  -0.307  0.00  0.00    +0.292 HD
ENDBRANCH   8  13
BRANCH   7  15
ATOM     15  C   LIG    1       -5.080   3.919  -0.100  0.00  0.00    +0.065 C 
BRANCH  15  17
ATOM     16  C   LIG    1       -5.988   5.278   1.839  0.00  0.00    +0.004 C 
ATOM     17  C   LIG    1       -4.958   4.854   1.090  0.00  0.00    -0.030 C 
ENDBRANCH  15  17
ENDBRANCH   7  15
ENDBRANCH   5   9
ENDBRANCH   1   6
BRANCH   3  18
ATOM     18  C   LIG    1        3.628  -0.220   0.101  0.00  0.00    +0.182 C 
BRANCH  18  19
ATOM     19  N   LIG    1        4.501  -0.876   1.083  0.00  0.00    -0.298 NA
ATOM     20  C   LIG    1        5.136  -0.039   2.100  0.00  0.00    +0.066 C 
ATOM     21  C   LIG    1        6.422   0.597   1.519  0.00  0.00    -0.063 C 
ATOM     22  N   LIG    1        7.369  -0.528   1.025  0.00  0.00    +0.384 N 
ATOM     23  H   LIG    1        7.611  -1.103   1.821  0.00  0.00    -0.081 HD
ATOM     24  C   LIG    1        6.638  -1.427  -0.007  0.00  0.00    -0.063 C 
ATOM     25  C   LIG    1        5.341  -1.984   0.629  0.00  0.00    +0.066 C 
BRANCH  22  26
ATOM     26  C   LIG    1        8.666   0.048   0.409  0.00  0.00    -0.043 C 
BRANCH  26  27
ATOM     27  C   LIG    1        9.540   0.816   1.391  0.00  0.00    -0.064 A 
ATOM     28  C   LIG    1       10.384   0.122   2.262  0.00  0.00    +0.002 A 
ATOM     29  C   LIG    1       11.193   0.823   3.151  0.00  0.00    +0.000 A 
ATOM     30  C   LIG    1       11.162   2.216   3.161  0.00  0.00    +0.000 A 
ATOM     31  C   LIG    1       10.329   2.915   2.289  0.00  0.00    +0.000 A 
ATOM     32  C   LIG    1        9.520   2.214   1.399  0.00  0.00    +0.002 A 
ENDBRANCH  26  27
ENDBRANCH  22  26
ENDBRANCH  18  19
ENDBRANCH   3  18
TORSDOF 9
