REMARK  Name = DB13296
REMARK                            x       y       z     vdW  Elec       q    Type
REMARK                         _______ _______ _______ _____ _____    ______ ____
ROOT
ATOM      1  C   LIG    1        0.321   0.455   0.000  0.00  0.00    +0.082 C 
ENDROOT
BRANCH   1   2
ATOM      2  C   LIG    1       -0.234   1.886   0.000  0.00  0.00    +0.232 C 
BRANCH   2   3
ATOM      3  O   LIG    1       -1.658   1.824   0.000  0.00  0.00    -0.492 OA
BRANCH   3   4
ATOM      4  C   LIG    1       -2.388   2.997   0.000  0.00  0.00    +0.121 A 
ATOM      5  C   LIG    1       -1.829   4.280   0.000  0.00  0.00    +0.046 A 
ATOM      6  C   LIG    1       -2.650   5.405   0.000  0.00  0.00    +0.019 A 
ATOM      7  C   LIG    1       -4.058   5.303   0.000  0.00  0.00    +0.061 A 
ATOM      8  C   LIG    1       -4.591   3.996   0.000  0.00  0.00    +0.019 A 
ATOM      9  C   LIG    1       -3.774   2.869   0.000  0.00  0.00    +0.046 A 
BRANCH   7  10
ATOM     10  C   LIG    1       -4.936   6.512   0.000  0.00  0.00    +0.266 C 
ATOM     11  N   LIG    1       -4.411   7.736   0.000  0.00  0.00    -0.288 N 
ATOM     12  H   LIG    1       -3.408   7.852   0.000  0.00  0.00    +0.301 HD
ATOM     13  H   LIG    1       -5.017   8.543   0.000  0.00  0.00    +0.301 HD
BRANCH  10  14
ATOM     14  N   LIG    1       -6.262   6.392  -0.000  0.00  0.00    -0.250 N 
ATOM     15  H   LIG    1       -6.682   5.474  -0.000  0.00  0.00    +0.288 HD
ATOM     16  H   LIG    1       -6.842   7.218  -0.000  0.00  0.00    +0.288 HD
ENDBRANCH  10  14
ENDBRANCH   7  10
ENDBRANCH   3   4
ENDBRANCH   2   3
ENDBRANCH   1   2
BRANCH   1  17
ATOM     17  C   LIG    1        1.856   0.408   0.000  0.00  0.00    +0.232 C 
BRANCH  17  18
ATOM     18  O   LIG    1        2.272  -0.955   0.000  0.00  0.00    -0.492 OA
BRANCH  18  19
ATOM     19  C   LIG    1        3.621  -1.253   0.000  0.00  0.00    +0.121 A 
ATOM     20  C   LIG    1        4.645  -0.298   0.000  0.00  0.00    +0.046 A 
ATOM     21  C   LIG    1        5.979  -0.697   0.000  0.00  0.00    +0.019 A 
ATOM     22  C   LIG    1        6.353  -2.058   0.000  0.00  0.00    +0.061 A 
ATOM     23  C   LIG    1        5.298  -2.997   0.000  0.00  0.00    +0.019 A 
ATOM     24  C   LIG    1        3.963  -2.601   0.000  0.00  0.00    +0.046 A 
BRANCH  22  25
ATOM     25  C   LIG    1        7.785  -2.482   0.000  0.00  0.00    +0.266 C 
ATOM     26  N   LIG    1        8.764  -1.580  -0.000  0.00  0.00    -0.288 N 
ATOM     27  H   LIG    1        8.539  -0.596  -0.000  0.00  0.00    +0.301 HD
ATOM     28  H   LIG    1        9.727  -1.882  -0.000  0.00  0.00    +0.301 HD
BRANCH  25  29
ATOM     29  N   LIG    1        8.114  -3.773   0.000  0.00  0.00    -0.250 N 
ATOM     30  H   LIG    1        7.389  -4.475   0.000  0.00  0.00    +0.288 HD
ATOM     31  H   LIG    1        9.086  -4.045   0.000  0.00  0.00    +0.288 HD
ENDBRANCH  25  29
ENDBRANCH  22  25
ENDBRANCH  18  19
ENDBRANCH  17  18
ENDBRANCH   1  17
TORSDOF 10
