REMARK  Name = DB13595
REMARK                            x       y       z     vdW  Elec       q    Type
REMARK                         _______ _______ _______ _____ _____    ______ ____
ROOT
ATOM      1 SI   LIG    1        0.179   0.309   0.228  0.00  0.00    +0.000 Si
ENDROOT
BRANCH   1   2
ATOM      2  O   LIG    1        0.553   1.375  -1.012  0.00  0.00    +0.000 OA
ATOM      3  H   LIG    1        0.304   2.275  -0.751  0.00  0.00    +0.000 HD
ENDBRANCH   1   2
BRANCH   1   4
ATOM      4  O   LIG    1        0.610  -1.247  -0.224  0.00  0.00    +0.000 OA
ATOM      5  H   LIG    1        1.563  -1.280  -0.403  0.00  0.00    +0.000 HD
ENDBRANCH   1   4
BRANCH   1   6
ATOM      6  O   LIG    1       -1.468   0.366   0.536  0.00  0.00    +0.000 OA
ATOM      7  H   LIG    1       -1.717   1.266   0.797  0.00  0.00    +0.000 HD
ENDBRANCH   1   6
BRANCH   1   8
ATOM      8  O   LIG    1        1.022   0.743   1.611  0.00  0.00    +0.000 OA
ATOM      9  H   LIG    1        0.773   1.643   1.872  0.00  0.00    +0.000 HD
ENDBRANCH   1   8
TORSDOF 4
