REMARK  Name = DB13025
REMARK                            x       y       z     vdW  Elec       q    Type
REMARK                         _______ _______ _______ _____ _____    ______ ____
ROOT
ATOM      1  C   LIG    1       -1.724   0.508  -0.016  0.00  0.00    +0.080 A 
ATOM      2  C   LIG    1       -2.483  -0.588  -0.459  0.00  0.00    +0.043 A 
ATOM      3  C   LIG    1       -3.868  -0.497  -0.593  0.00  0.00    +0.089 A 
ATOM      4  C   LIG    1       -4.513   0.697  -0.279  0.00  0.00    +0.030 A 
ATOM      5  C   LIG    1       -3.776   1.793   0.160  0.00  0.00    +0.048 A 
ATOM      6  C   LIG    1       -2.377   1.720   0.298  0.00  0.00    +0.132 A 
ENDROOT
BRANCH   1   7
ATOM      7  C   LIG    1       -0.222   0.376   0.090  0.00  0.00    +0.248 C 
ATOM      8  O   LIG    1        0.522   1.299  -0.248  0.00  0.00    -0.270 OA
ATOM      9  N   LIG    1        0.232  -0.801   0.565  0.00  0.00    -0.313 N 
ATOM     10  H   LIG    1       -0.444  -1.489   0.863  0.00  0.00    +0.149 HD
BRANCH   9  11
ATOM     11  C   LIG    1        1.641  -1.167   0.716  0.00  0.00    +0.086 C 
BRANCH  11  12
ATOM     12  C   LIG    1        2.314  -1.588  -0.613  0.00  0.00    -0.060 C 
BRANCH  12  13
ATOM     13  N   LIG    1        2.885  -0.356  -1.360  0.00  0.00    +0.380 N 
ATOM     14  H   LIG    1        2.237   0.401  -1.188  0.00  0.00    -0.082 HD
BRANCH  13  15
ATOM     15  C   LIG    1        2.925  -0.552  -2.895  0.00  0.00    -0.082 C 
ATOM     16  C   LIG    1        1.515  -0.412  -3.495  0.00  0.00    -0.017 C 
ENDBRANCH  13  15
BRANCH  13  17
ATOM     17  C   LIG    1        4.248   0.096  -0.780  0.00  0.00    -0.082 C 
ATOM     18  C   LIG    1        4.487   1.590  -1.055  0.00  0.00    -0.017 C 
ENDBRANCH  13  17
ENDBRANCH  12  13
ENDBRANCH  11  12
ENDBRANCH   9  11
ENDBRANCH   1   7
BRANCH   3  19
ATOM     19  S   LIG    1       -4.814  -1.909  -1.154  0.00  0.00    -0.006 S 
ATOM     20  O   LIG    1       -3.906  -2.778  -1.910  0.00  0.00    -0.170 OA
ATOM     21  O   LIG    1       -6.041  -1.398  -1.776  0.00  0.00    -0.170 OA
ATOM     22  C   LIG    1       -5.277  -2.780   0.453  0.00  0.00    +0.200 C 
ENDBRANCH   3  19
BRANCH   6  23
ATOM     23  O   LIG    1       -1.615   2.788   0.745  0.00  0.00    -0.494 OA
ATOM     24  C   LIG    1       -2.242   4.027   1.062  0.00  0.00    +0.277 C 
ENDBRANCH   6  23
TORSDOF 8
