REMARK  Name = DB13929
REMARK                            x       y       z     vdW  Elec       q    Type
REMARK                         _______ _______ _______ _____ _____    ______ ____
ROOT
ATOM      1  C   LIG    1       -2.753  -1.722   1.418  0.00  0.00    +0.041 A 
ATOM      2  C   LIG    1       -1.525  -2.376   1.310  0.00  0.00    +0.022 A 
ATOM      3  C   LIG    1       -0.416  -1.703   0.799  0.00  0.00    +0.026 A 
ATOM      4  C   LIG    1       -0.529  -0.366   0.402  0.00  0.00    +0.059 A 
ATOM      5  N   LIG    1        0.457   0.480  -0.129  0.00  0.00    -0.187 N 
ATOM      6  C   LIG    1       -0.118   1.817  -0.346  0.00  0.00    +0.224 C 
ATOM      7  C   LIG    1       -1.656   1.679  -0.066  0.00  0.00    +0.148 C 
ATOM      8  C   LIG    1       -1.762   0.277   0.487  0.00  0.00    +0.015 A 
ATOM      9 CL   LIG    1       -4.124  -2.557   2.051  0.00  0.00    -0.084 Cl
ATOM     10  C   LIG    1       -2.873  -0.395   1.004  0.00  0.00    +0.028 A 
ENDROOT
BRANCH   7  11
ATOM     11  C   LIG    1       -2.647   1.943  -1.258  0.00  0.00    +0.009 A 
ATOM     12  C   LIG    1       -2.787   1.053  -2.356  0.00  0.00    +0.047 A 
ATOM     13 CL   LIG    1       -1.891  -0.420  -2.521  0.00  0.00    -0.083 Cl
ATOM     14  C   LIG    1       -3.672   1.339  -3.397  0.00  0.00    +0.020 A 
ATOM     15  C   LIG    1       -4.432   2.503  -3.388  0.00  0.00    +0.001 A 
ATOM     16  C   LIG    1       -4.309   3.394  -2.331  0.00  0.00    +0.000 A 
ATOM     17  C   LIG    1       -3.431   3.117  -1.287  0.00  0.00    +0.008 A 
ENDBRANCH   7  11
BRANCH   6  18
ATOM     18  C   LIG    1        0.277   2.407  -1.732  0.00  0.00    +0.242 C 
ATOM     19  O   LIG    1        0.571   1.642  -2.653  0.00  0.00    -0.273 OA
ATOM     20  N   LIG    1        0.284   3.752  -1.900  0.00  0.00    -0.288 N 
ATOM     21  C   LIG    1        0.611   4.402  -3.184  0.00  0.00    +0.162 C 
ATOM     22  C   LIG    1        0.053   5.825  -3.001  0.00  0.00    +0.033 C 
ATOM     23  C   LIG    1        0.190   6.102  -1.513  0.00  0.00    +0.021 C 
ATOM     24  C   LIG    1       -0.074   4.741  -0.879  0.00  0.00    +0.109 C 
BRANCH  21  25
ATOM     25  C   LIG    1        2.125   4.359  -3.503  0.00  0.00    +0.231 C 
ATOM     26  O   LIG    1        2.888   5.208  -3.043  0.00  0.00    -0.274 OA
ATOM     27  N   LIG    1        2.549   3.357  -4.278  0.00  0.00    -0.328 N 
ATOM     28  H   LIG    1        3.528   3.275  -4.510  0.00  0.00    +0.145 HD
ATOM     29  H   LIG    1        1.898   2.662  -4.614  0.00  0.00    +0.145 HD
ENDBRANCH  21  25
ENDBRANCH   6  18
BRANCH   5  30
ATOM     30  S   LIG    1        2.209   0.306   0.199  0.00  0.00    +0.076 S 
ATOM     31  O   LIG    1        2.909   1.412  -0.465  0.00  0.00    -0.150 OA
ATOM     32  O   LIG    1        2.577  -1.087  -0.078  0.00  0.00    -0.150 OA
BRANCH  30  33
ATOM     33  C   LIG    1        2.354   0.568   1.965  0.00  0.00    +0.112 A 
ATOM     34  C   LIG    1        2.217  -0.505   2.848  0.00  0.00    +0.078 A 
ATOM     35  C   LIG    1        2.293  -0.308   4.237  0.00  0.00    +0.163 A 
ATOM     36  C   LIG    1        2.516   0.984   4.738  0.00  0.00    +0.162 A 
ATOM     37  C   LIG    1        2.648   2.058   3.841  0.00  0.00    +0.051 A 
ATOM     38  C   LIG    1        2.563   1.852   2.466  0.00  0.00    +0.032 A 
BRANCH  35  39
ATOM     39  O   LIG    1        2.155  -1.329   5.162  0.00  0.00    -0.491 OA
ATOM     40  C   LIG    1        1.902  -2.655   4.712  0.00  0.00    +0.277 C 
ENDBRANCH  35  39
BRANCH  36  41
ATOM     41  O   LIG    1        2.590   1.121   6.113  0.00  0.00    -0.491 OA
ATOM     42  C   LIG    1        2.825   2.407   6.678  0.00  0.00    +0.277 C 
ENDBRANCH  36  41
ENDBRANCH  30  33
ENDBRANCH   5  30
BRANCH   7  43
ATOM     43  O   LIG    1       -1.980   2.579   0.987  0.00  0.00    -0.377 OA
ATOM     44  H   LIG    1       -1.319   2.486   1.678  0.00  0.00    +0.211 HD
ENDBRANCH   7  43
TORSDOF 8
