REMARK  Name = DB13960
REMARK                            x       y       z     vdW  Elec       q    Type
REMARK                         _______ _______ _______ _____ _____    ______ ____
ROOT
ATOM      1  C   LIG    1        1.516   0.028   0.015  0.00  0.00    +0.215 C 
ATOM      2 BR   LIG    1        2.130   0.954  -1.659  0.00  0.00    -0.049 Br
ENDROOT
BRANCH   1   3
ATOM      3  N   LIG    1        2.038   0.784   1.220  0.00  0.00    -0.007 N 
ATOM      4  O   LIG    1        1.877   0.271   2.324  0.00  0.00    -0.134 OA
BRANCH   3   5
ATOM      5  O   LIG    1        2.580   1.873   1.059  0.00  0.00    -0.399 OA
ATOM      6  H   LIG    1        2.681   2.223   0.196  0.00  0.00    +0.329 HD
ENDBRANCH   3   5
ENDBRANCH   1   3
BRANCH   1   7
ATOM      7  C   LIG    1       -0.033   0.017   0.009  0.00  0.00    +0.205 C 
BRANCH   7   8
ATOM      8  O   LIG    1       -0.579   1.323   0.004  0.00  0.00    -0.392 OA
ATOM      9  H   LIG    1       -1.536   1.256   0.002  0.00  0.00    +0.210 HD
ENDBRANCH   7   8
ENDBRANCH   1   7
BRANCH   1  10
ATOM     10  C   LIG    1        2.068  -1.420  -0.027  0.00  0.00    +0.205 C 
BRANCH  10  11
ATOM     11  O   LIG    1        3.482  -1.453  -0.049  0.00  0.00    -0.392 OA
ATOM     12  H   LIG    1        3.768  -2.369  -0.067  0.00  0.00    +0.210 HD
ENDBRANCH  10  11
ENDBRANCH   1  10
TORSDOF 6
