REMARK  Name = DB13813
REMARK                            x       y       z     vdW  Elec       q    Type
REMARK                         _______ _______ _______ _____ _____    ______ ____
ROOT
ATOM      1  I   LIG    1       -1.577  -0.841  -0.045  0.00  0.00    -0.059 I 
ATOM      2  C   LIG    1       -0.029   0.589   0.515  0.00  0.00    +0.177 C 
ATOM      3  I   LIG    1        0.607   1.890  -1.115  0.00  0.00    -0.059 I 
ATOM      4  I   LIG    1        1.617  -0.285   1.645  0.00  0.00    -0.059 I 
ENDROOT
TORSDOF 0
