REMARK  Name = DB13218
REMARK                            x       y       z     vdW  Elec       q    Type
REMARK                         _______ _______ _______ _____ _____    ______ ____
ROOT
ATOM      1  C   LIG    1        1.493  -0.079   0.172  0.00  0.00    +0.253 C 
ENDROOT
BRANCH   1   5
ATOM      2  C   LIG    1       -2.818   0.021  -0.097  0.00  0.00    +0.000 A 
ATOM      3  C   LIG    1       -2.178  -1.183   0.186  0.00  0.00    +0.000 A 
ATOM      4  C   LIG    1       -0.789  -1.221   0.277  0.00  0.00    +0.007 A 
ATOM      5  C   LIG    1       -0.038  -0.053   0.091  0.00  0.00    -0.008 A 
ATOM      6  C   LIG    1       -0.693   1.150  -0.199  0.00  0.00    +0.007 A 
ATOM      7  C   LIG    1       -2.082   1.188  -0.291  0.00  0.00    +0.000 A 
ENDBRANCH   1   5
BRANCH   1   8
ATOM      8  O   LIG    1        1.980  -0.945   1.187  0.00  0.00    -0.376 OA
ATOM      9  H   LIG    1        2.935  -0.857   1.231  0.00  0.00    +0.211 HD
ENDBRANCH   1   8
BRANCH   1  10
ATOM     10  C   LIG    1        2.121  -0.474  -1.184  0.00  0.00    +0.338 C 
ATOM     11  O   LIG    1        2.798  -1.486  -1.369  0.00  0.00    -0.248 OA
BRANCH  10  12
ATOM     12  O   LIG    1        1.828   0.438  -2.157  0.00  0.00    -0.479 OA
ATOM     13  H   LIG    1        2.208   0.200  -3.006  0.00  0.00    +0.295 HD
ENDBRANCH  10  12
ENDBRANCH   1  10
TORSDOF 4
