REMARK  Name = DB13288
REMARK                            x       y       z     vdW  Elec       q    Type
REMARK                         _______ _______ _______ _____ _____    ______ ____
ROOT
ATOM      1  N   LIG    1       -0.289   1.319  -2.220  0.00  0.00    -0.308 N 
ATOM      2  H   LIG    1       -0.125   0.338  -2.045  0.00  0.00    +0.149 HD
ATOM      3  C   LIG    1       -0.371   2.120  -1.138  0.00  0.00    +0.239 C 
ATOM      4  O   LIG    1       -0.573   3.332  -1.204  0.00  0.00    -0.273 OA
ENDROOT
BRANCH   1   8
ATOM      5  C   LIG    1       -1.679   1.317  -6.321  0.00  0.00    +0.007 C 
ATOM      6  C   LIG    1       -0.300   0.671  -6.026  0.00  0.00    -0.008 C 
ATOM      7  C   LIG    1       -0.214   0.393  -4.501  0.00  0.00    +0.029 C 
ATOM      8  C   LIG    1       -0.386   1.680  -3.641  0.00  0.00    +0.035 C 
ATOM      9  C   LIG    1       -1.769   2.302  -4.012  0.00  0.00    +0.029 C 
ATOM     10  C   LIG    1        0.728   2.682  -4.083  0.00  0.00    +0.029 C 
ATOM     11  C   LIG    1        0.658   3.019  -5.596  0.00  0.00    -0.008 C 
ATOM     12  C   LIG    1       -0.744   3.612  -5.898  0.00  0.00    +0.007 C 
ATOM     13  C   LIG    1        0.805   1.696  -6.393  0.00  0.00    +0.007 C 
ATOM     14  C   LIG    1       -1.887   2.631  -5.523  0.00  0.00    -0.008 C 
ENDBRANCH   1   8
BRANCH   3  15
ATOM     15  C   LIG    1       -0.225   1.462   0.248  0.00  0.00    +0.255 C 
BRANCH  15  16
ATOM     16  O   LIG    1        0.336   0.148   0.170  0.00  0.00    -0.369 OA
BRANCH  16  17
ATOM     17  C   LIG    1        1.751   0.092  -0.009  0.00  0.00    +0.175 C 
BRANCH  17  18
ATOM     18  C   LIG    1        2.240  -1.366  -0.142  0.00  0.00    +0.112 C 
BRANCH  18  19
ATOM     19  N   LIG    1        1.980  -1.968  -1.457  0.00  0.00    -0.306 NA
ATOM     20  C   LIG    1        0.562  -2.235  -1.691  0.00  0.00    +0.104 C 
ATOM     21  C   LIG    1        2.717  -3.223  -1.573  0.00  0.00    +0.104 C 
ENDBRANCH  18  19
ENDBRANCH  17  18
ENDBRANCH  16  17
ENDBRANCH  15  16
ENDBRANCH   3  15
TORSDOF 6
