REMARK  Name = DB13002
REMARK                            x       y       z     vdW  Elec       q    Type
REMARK                         _______ _______ _______ _____ _____    ______ ____
ROOT
ATOM      1  C   LIG    1       -0.830  -1.170   0.420  0.00  0.00    +0.144 A 
ATOM      2  C   LIG    1       -0.179   0.028   0.110  0.00  0.00    +0.077 A 
ATOM      3  C   LIG    1       -0.906   1.216  -0.037  0.00  0.00    +0.039 A 
ATOM      4  C   LIG    1       -2.326   1.245   0.057  0.00  0.00    +0.025 A 
ATOM      5  C   LIG    1       -3.144   2.425  -0.128  0.00  0.00    +0.060 A 
ATOM      6  C   LIG    1       -4.532   2.302   0.105  0.00  0.00    +0.091 A 
ATOM      7  C   LIG    1       -5.059   1.057   0.441  0.00  0.00    +0.132 A 
ATOM      8  N   LIG    1       -4.321  -0.065   0.569  0.00  0.00    -0.253 NA
ATOM      9  C   LIG    1       -2.978   0.017   0.390  0.00  0.00    +0.076 A 
ATOM     10  C   LIG    1       -2.225  -1.168   0.562  0.00  0.00    +0.076 A 
ENDROOT
BRANCH   2  11
ATOM     11  N   LIG    1        1.226   0.025  -0.000  0.00  0.00    -0.279 N 
ATOM     12  H   LIG    1        1.709  -0.615   0.615  0.00  0.00    +0.155 HD
ATOM     13  C   LIG    1        1.959   0.670  -0.934  0.00  0.00    +0.241 C 
ATOM     14  O   LIG    1        1.477   1.344  -1.848  0.00  0.00    -0.271 OA
BRANCH  13  15
ATOM     15  C   LIG    1        3.383   0.498  -0.758  0.00  0.00    +0.061 C 
ATOM     16  C   LIG    1        4.290   1.144  -1.519  0.00  0.00    -0.040 C 
BRANCH  16  17
ATOM     17  C   LIG    1        5.793   1.001  -1.371  0.00  0.00    -0.052 C 
BRANCH  17  18
ATOM     18  N   LIG    1        6.457   0.234  -2.535  0.00  0.00    +0.378 N 
ATOM     19  H   LIG    1        5.974  -0.650  -2.621  0.00  0.00    -0.082 HD
ATOM     20  C   LIG    1        6.328   0.962  -3.888  0.00  0.00    -0.096 C 
ATOM     21  C   LIG    1        7.933  -0.089  -2.227  0.00  0.00    -0.096 C 
ENDBRANCH  17  18
ENDBRANCH  16  17
ENDBRANCH  13  15
ENDBRANCH   2  11
BRANCH   5  22
ATOM     22  N   LIG    1       -2.629   3.685  -0.518  0.00  0.00    -0.313 N 
ATOM     23  H   LIG    1       -3.258   4.461  -0.366  0.00  0.00    +0.152 HD
BRANCH  22  24
ATOM     24  C   LIG    1       -1.516   3.994  -1.310  0.00  0.00    +0.033 A 
ATOM     25  C   LIG    1       -0.602   4.952  -0.871  0.00  0.00    +0.047 A 
ATOM     26  C   LIG    1        0.560   5.203  -1.603  0.00  0.00    +0.084 A 
ATOM     27 CL   LIG    1        1.699   6.352  -0.993  0.00  0.00    -0.080 Cl
ATOM     28  C   LIG    1        0.815   4.512  -2.796  0.00  0.00    +0.139 A 
ATOM     29  C   LIG    1       -0.144   3.597  -3.263  0.00  0.00    +0.049 A 
ATOM     30  C   LIG    1       -1.297   3.337  -2.524  0.00  0.00    +0.027 A 
BRANCH  28  31
ATOM     31  O   LIG    1        2.019   4.750  -3.430  0.00  0.00    -0.486 OA
BRANCH  31  32
ATOM     32  C   LIG    1        2.463   3.850  -4.446  0.00  0.00    +0.264 C 
BRANCH  32  33
ATOM     33  C   LIG    1        3.940   4.062  -4.755  0.00  0.00    -0.008 A 
ATOM     34  C   LIG    1        4.451   3.632  -5.984  0.00  0.00    +0.045 A 
ATOM     35  C   LIG    1        5.802   3.804  -6.287  0.00  0.00    +0.124 A 
ATOM     36  F   LIG    1        6.287   3.382  -7.477  0.00  0.00    -0.205 F 
ATOM     37  C   LIG    1        6.653   4.407  -5.362  0.00  0.00    +0.038 A 
ATOM     38  C   LIG    1        6.155   4.831  -4.130  0.00  0.00    +0.003 A 
ATOM     39  C   LIG    1        4.805   4.656  -3.825  0.00  0.00    +0.007 A 
ENDBRANCH  32  33
ENDBRANCH  31  32
ENDBRANCH  28  31
ENDBRANCH  22  24
ENDBRANCH   5  22
BRANCH   6  40
ATOM     40  C   LIG    1       -5.472   3.419  -0.012  0.00  0.00    +0.103 C 
ATOM     41  N   LIG    1       -6.215   4.301  -0.104  0.00  0.00    -0.191 NA
ENDBRANCH   6  40
BRANCH   1  42
ATOM     42  O   LIG    1       -0.050  -2.305   0.576  0.00  0.00    -0.490 OA
BRANCH  42  44
ATOM     43  C   LIG    1        0.426  -4.625   0.977  0.00  0.00    +0.048 C 
ATOM     44  C   LIG    1       -0.664  -3.554   0.882  0.00  0.00    +0.226 C 
ENDBRANCH  42  44
ENDBRANCH   1  42
TORSDOF 12
