REMARK  Name = DB13583
REMARK                            x       y       z     vdW  Elec       q    Type
REMARK                         _______ _______ _______ _____ _____    ______ ____
ROOT
ATOM      1  O   LIG    1       -0.586   1.234  -0.012  0.00  0.00    -0.489 OA
ENDROOT
BRANCH   1   4
ATOM      2  C   LIG    1       -1.541   3.883   0.047  0.00  0.00    +0.047 C 
ATOM      3  C   LIG    1       -2.478   2.685   0.010  0.00  0.00    -0.009 A 
ATOM      4  C   LIG    1       -1.962   1.378  -0.020  0.00  0.00    +0.124 A 
ATOM      5  C   LIG    1       -2.861   0.296  -0.055  0.00  0.00    +0.046 A 
ATOM      6  C   LIG    1       -4.238   0.515  -0.061  0.00  0.00    +0.004 A 
ATOM      7  C   LIG    1       -4.738   1.814  -0.032  0.00  0.00    +0.000 A 
ATOM      8  C   LIG    1       -3.861   2.895   0.003  0.00  0.00    +0.007 A 
ENDBRANCH   1   4
BRANCH   1   9
ATOM      9  C   LIG    1       -0.011  -0.071  -0.059  0.00  0.00    +0.262 C 
BRANCH   9  10
ATOM     10  C   LIG    1        1.526   0.040  -0.058  0.00  0.00    +0.177 C 
BRANCH  10  11
ATOM     11  O   LIG    1        1.939   0.620  -1.284  0.00  0.00    -0.386 OA
ATOM     12  H   LIG    1        2.899   0.666  -1.287  0.00  0.00    +0.210 HD
ENDBRANCH  10  11
BRANCH  10  13
ATOM     13  C   LIG    1        2.212  -1.333   0.101  0.00  0.00    +0.190 C 
BRANCH  13  14
ATOM     14  O   LIG    1        3.605  -1.191   0.308  0.00  0.00    -0.392 OA
ATOM     15  H   LIG    1        3.990  -2.065   0.409  0.00  0.00    +0.210 HD
ENDBRANCH  13  14
ENDBRANCH  10  13
ENDBRANCH   9  10
ENDBRANCH   1   9
TORSDOF 6
