REMARK  Name = DB13865
REMARK                            x       y       z     vdW  Elec       q    Type
REMARK                         _______ _______ _______ _____ _____    ______ ____
ROOT
ATOM      1  C   LIG    1        0.493  -0.362  -0.465  0.00  0.00    -0.075 C 
ATOM      2  C   LIG    1        0.062   0.929  -0.359  0.00  0.00    -0.087 C 
ATOM      3  C   LIG    1       -1.419   1.251  -0.123  0.00  0.00    -0.047 C 
ATOM      4  N   LIG    1       -2.122   0.094   0.616  0.00  0.00    +0.387 N 
ATOM      5  H   LIG    1       -1.628  -0.049   1.485  0.00  0.00    -0.080 HD
ATOM      6  C   LIG    1       -3.590   0.398   0.960  0.00  0.00    -0.073 C 
ATOM      7  C   LIG    1       -4.103  -0.732   1.859  0.00  0.00    +0.017 C 
ATOM      8  C   LIG    1       -3.916  -2.103   1.220  0.00  0.00    -0.044 A 
ATOM      9  C   LIG    1       -4.769  -3.152   1.571  0.00  0.00    +0.053 A 
ATOM     10  C   LIG    1       -4.624  -4.438   1.033  0.00  0.00    +0.162 A 
ATOM     11  C   LIG    1       -3.597  -4.676   0.116  0.00  0.00    +0.162 A 
ATOM     12  C   LIG    1       -2.749  -3.619  -0.246  0.00  0.00    +0.051 A 
ATOM     13  C   LIG    1       -2.880  -2.331   0.289  0.00  0.00    -0.054 A 
ATOM     14  C   LIG    1       -1.955  -1.202  -0.215  0.00  0.00    -0.033 C 
ATOM     15  C   LIG    1       -0.445  -1.555  -0.226  0.00  0.00    +0.020 C 
ENDROOT
BRANCH   2  16
ATOM     16  C   LIG    1        0.983   2.151  -0.505  0.00  0.00    +0.025 C 
ATOM     17  C   LIG    1        0.821   3.252   0.558  0.00  0.00    +0.008 C 
ENDBRANCH   2  16
BRANCH  10  18
ATOM     18  O   LIG    1       -5.445  -5.505   1.355  0.00  0.00    -0.491 OA
ATOM     19  C   LIG    1       -6.519  -5.315   2.270  0.00  0.00    +0.277 C 
ENDBRANCH  10  18
BRANCH  11  20
ATOM     20  O   LIG    1       -3.487  -5.960  -0.390  0.00  0.00    -0.491 OA
ATOM     21  C   LIG    1       -2.454  -6.264  -1.322  0.00  0.00    +0.277 C 
ENDBRANCH  11  20
BRANCH   1  22
ATOM     22  C   LIG    1        1.942  -0.767  -0.759  0.00  0.00    +0.019 C 
BRANCH  22  23
ATOM     23  C   LIG    1        2.779  -1.234   0.466  0.00  0.00    -0.036 C 
ATOM     24  N   LIG    1        4.167  -1.660  -0.064  0.00  0.00    +0.384 N 
ATOM     25  H   LIG    1        4.049  -2.168  -0.929  0.00  0.00    -0.085 HD
ATOM     26  H   LIG    1        4.587  -2.298   0.596  0.00  0.00    -0.085 HD
ATOM     27  C   LIG    1        5.123  -0.478  -0.286  0.00  0.00    -0.077 C 
ATOM     28  C   LIG    1        5.380   0.209   1.063  0.00  0.00    +0.016 C 
ATOM     29  C   LIG    1        4.103   0.520   1.840  0.00  0.00    -0.044 A 
ATOM     30  C   LIG    1        4.120   1.504   2.832  0.00  0.00    +0.053 A 
ATOM     31  C   LIG    1        3.003   1.767   3.638  0.00  0.00    +0.162 A 
ATOM     32  C   LIG    1        1.840   1.016   3.448  0.00  0.00    +0.162 A 
ATOM     33  C   LIG    1        1.817   0.041   2.441  0.00  0.00    +0.051 A 
ATOM     34  C   LIG    1        2.914  -0.206   1.609  0.00  0.00    -0.054 A 
BRANCH  31  35
ATOM     35  O   LIG    1        2.977   2.731   4.630  0.00  0.00    -0.491 OA
ATOM     36  C   LIG    1        4.131   3.531   4.863  0.00  0.00    +0.277 C 
ENDBRANCH  31  35
BRANCH  32  37
ATOM     37  O   LIG    1        0.762   1.298   4.270  0.00  0.00    -0.491 OA
ATOM     38  C   LIG    1       -0.457   0.582   4.101  0.00  0.00    +0.277 C 
ENDBRANCH  32  37
ENDBRANCH  22  23
ENDBRANCH   1  22
TORSDOF 7
