REMARK  Name = DB13085
REMARK                            x       y       z     vdW  Elec       q    Type
REMARK                         _______ _______ _______ _____ _____    ______ ____
ROOT
ATOM      1  C   LIG    1       -0.123   2.506   1.007  0.00  0.00    -0.008 A 
ATOM      2  C   LIG    1        0.972   3.384   0.965  0.00  0.00    +0.026 A 
ATOM      3  C   LIG    1        1.426   4.025   2.112  0.00  0.00    +0.042 A 
ATOM      4 CL   LIG    1        2.774   5.098   2.027  0.00  0.00    -0.084 Cl
ATOM      5  C   LIG    1        0.801   3.788   3.330  0.00  0.00    +0.029 A 
ATOM      6  C   LIG    1       -0.275   2.899   3.410  0.00  0.00    -0.008 A 
ATOM      7  C   LIG    1       -1.058   2.465   4.589  0.00  0.00    -0.009 C 
ATOM      8  C   LIG    1       -2.097   1.591   4.024  0.00  0.00    -0.008 A 
ATOM      9  C   LIG    1       -3.139   0.916   4.670  0.00  0.00    +0.029 A 
ATOM     10  C   LIG    1       -4.010   0.110   3.938  0.00  0.00    +0.042 A 
ATOM     11 CL   LIG    1       -5.294  -0.723   4.735  0.00  0.00    -0.084 Cl
ATOM     12  C   LIG    1       -3.839  -0.024   2.562  0.00  0.00    +0.020 A 
ATOM     13  C   LIG    1       -2.800   0.647   1.917  0.00  0.00    +0.010 A 
ATOM     14  C   LIG    1       -1.922   1.460   2.646  0.00  0.00    -0.009 A 
ATOM     15  C   LIG    1       -0.913   2.760   5.901  0.00  0.00    +0.017 C 
ATOM     16  C   LIG    1       -0.757   2.281   2.249  0.00  0.00    -0.004 A 
ENDROOT
BRANCH  15  17
ATOM     17  C   LIG    1        0.166   3.529   6.541  0.00  0.00    -0.024 A 
ATOM     18  C   LIG    1        1.492   3.092   6.456  0.00  0.00    +0.009 A 
ATOM     19  C   LIG    1        2.506   3.816   7.078  0.00  0.00    +0.020 A 
ATOM     20  C   LIG    1        2.191   4.969   7.795  0.00  0.00    +0.041 A 
ATOM     21 CL   LIG    1        3.447   5.868   8.565  0.00  0.00    -0.084 Cl
ATOM     22  C   LIG    1        0.869   5.398   7.900  0.00  0.00    +0.020 A 
ATOM     23  C   LIG    1       -0.145   4.674   7.278  0.00  0.00    +0.009 A 
ENDBRANCH  15  17
BRANCH   1  24
ATOM     24  C   LIG    1       -0.555   1.797  -0.288  0.00  0.00    +0.159 C 
BRANCH  24  25
ATOM     25  O   LIG    1       -0.147   2.458  -1.476  0.00  0.00    -0.386 OA
ATOM     26  H   LIG    1       -0.552   3.328  -1.495  0.00  0.00    +0.210 HD
ENDBRANCH  24  25
BRANCH  24  27
ATOM     27  C   LIG    1       -0.116   0.307  -0.402  0.00  0.00    +0.120 C 
BRANCH  27  28
ATOM     28  N   LIG    1        1.327   0.078  -0.198  0.00  0.00    -0.300 NA
BRANCH  28  29
ATOM     29  C   LIG    1        1.630  -0.176   1.223  0.00  0.00    +0.084 C 
BRANCH  29  30
ATOM     30  C   LIG    1        2.920   0.532   1.688  0.00  0.00    +0.015 C 
BRANCH  30  31
ATOM     31  C   LIG    1        2.999   0.671   3.219  0.00  0.00    -0.002 C 
ATOM     32  C   LIG    1        4.221   1.472   3.688  0.00  0.00    +0.004 C 
ENDBRANCH  30  31
ENDBRANCH  29  30
ENDBRANCH  28  29
BRANCH  28  33
ATOM     33  C   LIG    1        1.794  -1.000  -1.082  0.00  0.00    +0.084 C 
BRANCH  33  34
ATOM     34  C   LIG    1        3.326  -1.190  -1.098  0.00  0.00    +0.015 C 
BRANCH  34  35
ATOM     35  C   LIG    1        3.846  -2.058  -2.260  0.00  0.00    -0.002 C 
ATOM     36  C   LIG    1        3.758  -1.380  -3.636  0.00  0.00    +0.004 C 
ENDBRANCH  34  35
ENDBRANCH  33  34
ENDBRANCH  28  33
ENDBRANCH  27  28
ENDBRANCH  24  27
ENDBRANCH   1  24
TORSDOF 11
