REMARK  Name = DB13089
REMARK                            x       y       z     vdW  Elec       q    Type
REMARK                         _______ _______ _______ _____ _____    ______ ____
ROOT
ATOM      1  C   LIG    1       -2.121  -0.583  -1.097  0.00  0.00    +0.010 C 
ATOM      2  C   LIG    1       -0.624  -0.225  -1.173  0.00  0.00    +0.032 C 
ATOM      3  C   LIG    1       -0.056   0.198   0.197  0.00  0.00    +0.120 C 
ATOM      4  C   LIG    1       -0.339  -0.836   1.343  0.00  0.00    -0.006 C 
ATOM      5  C   LIG    1        0.560  -2.090   1.155  0.00  0.00    +0.014 C 
ATOM      6  C   LIG    1        0.010  -0.122   2.682  0.00  0.00    +0.014 C 
ATOM      7  C   LIG    1       -1.892  -1.170   1.327  0.00  0.00    +0.004 C 
ATOM      8  C   LIG    1       -2.382  -2.049   2.508  0.00  0.00    +0.005 C 
ATOM      9  C   LIG    1       -3.904  -1.942   2.659  0.00  0.00    +0.008 C 
ATOM     10  C   LIG    1       -4.697  -2.426   1.406  0.00  0.00    -0.013 C 
ATOM     11  C   LIG    1       -4.090  -1.737   0.107  0.00  0.00    +0.073 C 
ATOM     12  C   LIG    1       -4.889  -2.173  -1.161  0.00  0.00    +0.160 C 
ATOM     13  O   LIG    1       -4.394  -2.306  -2.278  0.00  0.00    -0.292 OA
ATOM     14  C   LIG    1       -6.307  -2.447  -0.981  0.00  0.00    +0.046 C 
ATOM     15  C   LIG    1       -6.979  -2.412   0.194  0.00  0.00    -0.056 C 
ATOM     16  C   LIG    1       -8.503  -2.690   0.207  0.00  0.00    +0.023 C 
ATOM     17  C   LIG    1       -9.366  -1.412  -0.026  0.00  0.00    +0.026 C 
ATOM     18  C   LIG    1      -10.886  -1.719  -0.222  0.00  0.00    +0.065 C 
ATOM     19  C   LIG    1      -11.320  -2.402   1.121  0.00  0.00    +0.018 C 
ATOM     20  C   LIG    1      -10.518  -3.685   1.469  0.00  0.00    +0.008 C 
ATOM     21  C   LIG    1      -11.659  -0.385  -0.383  0.00  0.00    +0.023 C 
ATOM     22  C   LIG    1       -8.957  -3.534   1.442  0.00  0.00    -0.025 C 
ATOM     23  C   LIG    1       -8.380  -4.978   1.347  0.00  0.00    +0.012 C 
ATOM     24  C   LIG    1       -8.470  -2.800   2.713  0.00  0.00    +0.008 C 
ATOM     25  C   LIG    1       -6.935  -2.732   2.773  0.00  0.00    +0.012 C 
ATOM     26  C   LIG    1       -6.259  -2.033   1.533  0.00  0.00    -0.004 C 
ATOM     27  C   LIG    1       -6.479  -0.493   1.711  0.00  0.00    +0.016 C 
ATOM     28  C   LIG    1       -4.514  -3.983   1.333  0.00  0.00    +0.013 C 
ATOM     29  C   LIG    1       -2.493  -1.684  -0.045  0.00  0.00    -0.018 C 
ATOM     30  C   LIG    1       -1.910  -3.063  -0.501  0.00  0.00    +0.012 C 
ENDROOT
BRANCH   3  31
ATOM     31  O   LIG    1        1.316   0.527   0.049  0.00  0.00    -0.391 OA
ATOM     32  H   LIG    1        1.620   0.930   0.866  0.00  0.00    +0.210 HD
ENDBRANCH   3  31
BRANCH  18  33
ATOM     33  C   LIG    1      -11.158  -2.624  -1.483  0.00  0.00    +0.311 C 
ATOM     34  O   LIG    1      -12.115  -3.434  -1.454  0.00  0.00    -0.250 OA
BRANCH  33  35
ATOM     35  O   LIG    1      -10.456  -2.447  -2.508  0.00  0.00    -0.480 OA
ATOM     36  H   LIG    1      -10.599  -2.973  -3.270  0.00  0.00    +0.295 HD
ENDBRANCH  33  35
ENDBRANCH  18  33
TORSDOF 3
