REMARK  Name = DB13838
REMARK                            x       y       z     vdW  Elec       q    Type
REMARK                         _______ _______ _______ _____ _____    ______ ____
ROOT
ATOM      1  C   LIG    1       -0.764   1.195   0.040  0.00  0.00    +0.132 C 
ATOM      2  S   LIG    1       -0.153   2.756   0.199  0.00  0.00    -0.019 S 
ENDROOT
BRANCH   1   4
ATOM      3  C   LIG    1       -3.184   1.866   0.038  0.00  0.00    +0.127 C 
ATOM      4  N   LIG    1       -2.094   0.889  -0.022  0.00  0.00    -0.330 N 
ATOM      5  H   LIG    1       -2.357  -0.081  -0.118  0.00  0.00    +0.147 HD
ENDBRANCH   1   4
BRANCH   1   6
ATOM      6  N   LIG    1        0.000   0.064  -0.040  0.00  0.00    -0.304 N 
ATOM      7  H   LIG    1       -0.467  -0.800  -0.275  0.00  0.00    +0.150 HD
BRANCH   6   8
ATOM      8  C   LIG    1        1.466   0.019  -0.016  0.00  0.00    +0.263 C 
BRANCH   8   9
ATOM      9  O   LIG    1        2.062   0.177  -1.287  0.00  0.00    -0.377 OA
ATOM     10  H   LIG    1        2.920   0.592  -1.172  0.00  0.00    +0.211 HD
ENDBRANCH   8   9
ENDBRANCH   6   8
ENDBRANCH   1   6
TORSDOF 4
