REMARK  Name = DB13153
REMARK                            x       y       z     vdW  Elec       q    Type
REMARK                         _______ _______ _______ _____ _____    ______ ____
ROOT
ATOM      1  C   LIG    1        1.660   0.107  -0.550  0.00  0.00    +0.067 C 
ATOM      2  C   LIG    1        2.258   0.522  -1.920  0.00  0.00    +0.041 C 
ENDROOT
BRANCH   1   3
ATOM      3  C   LIG    1        2.087  -1.349  -0.134  0.00  0.00    +0.024 C 
ATOM      4  C   LIG    1        3.623  -1.580  -0.071  0.00  0.00    +0.011 C 
ATOM      5  C   LIG    1        3.982  -3.061   0.154  0.00  0.00    +0.030 C 
ATOM      6  C   LIG    1        3.228  -3.630   1.350  0.00  0.00    -0.077 C 
ATOM      7  C   LIG    1        2.081  -3.069   1.789  0.00  0.00    -0.028 C 
ATOM      8  C   LIG    1        3.764  -4.922   1.942  0.00  0.00    +0.039 C 
ATOM      9  C   LIG    1        1.430  -1.819   1.204  0.00  0.00    +0.033 C 
ENDBRANCH   1   3
BRANCH   1  10
ATOM     10  O   LIG    1        2.189   1.040   0.380  0.00  0.00    -0.389 OA
ATOM     11  H   LIG    1        1.932   1.922   0.105  0.00  0.00    +0.210 HD
ENDBRANCH   1  10
BRANCH   1  12
ATOM     12  C   LIG    1        0.108   0.280  -0.558  0.00  0.00    +0.039 C 
BRANCH  12  13
ATOM     13  C   LIG    1       -0.447   1.666  -0.959  0.00  0.00    +0.030 C 
BRANCH  13  16
ATOM     14  C   LIG    1       -4.168   2.405   0.177  0.00  0.00    +0.038 C 
ATOM     15  C   LIG    1       -2.649   2.369   0.185  0.00  0.00    -0.080 C 
ATOM     16  C   LIG    1       -1.958   1.766  -0.806  0.00  0.00    -0.028 C 
ATOM     17  C   LIG    1       -2.017   3.043   1.396  0.00  0.00    +0.038 C 
ENDBRANCH  13  16
ENDBRANCH  12  13
ENDBRANCH   1  12
TORSDOF 5
