REMARK  Name = DB13123
REMARK                            x       y       z     vdW  Elec       q    Type
REMARK                         _______ _______ _______ _____ _____    ______ ____
ROOT
ATOM      1  C   LIG    1        1.452   1.190   0.491  0.00  0.00    +0.128 A 
ATOM      2  C   LIG    1        2.134   1.964   1.446  0.00  0.00    -0.001 A 
ATOM      3  C   LIG    1        1.383   2.712   2.548  0.00  0.00    +0.077 C 
ATOM      4  C   LIG    1        0.469   1.855   3.427  0.00  0.00    -0.001 A 
ATOM      5  C   LIG    1        0.949   0.716   4.098  0.00  0.00    +0.128 A 
ATOM      6  C   LIG    1        0.080  -0.054   4.893  0.00  0.00    -0.001 A 
ATOM      7  C   LIG    1        0.560  -1.309   5.626  0.00  0.00    +0.077 C 
ATOM      8  C   LIG    1        1.282  -2.350   4.768  0.00  0.00    -0.001 A 
ATOM      9  C   LIG    1        0.670  -2.917   3.636  0.00  0.00    +0.128 A 
ATOM     10  C   LIG    1        1.377  -3.840   2.843  0.00  0.00    -0.001 A 
ATOM     11  C   LIG    1        0.766  -4.440   1.576  0.00  0.00    +0.077 C 
ATOM     12  C   LIG    1        0.253  -3.428   0.551  0.00  0.00    -0.001 A 
ATOM     13  C   LIG    1        1.101  -2.449   0.002  0.00  0.00    +0.128 A 
ATOM     14  C   LIG    1        0.591  -1.515  -0.918  0.00  0.00    -0.001 A 
ATOM     15  C   LIG    1        1.467  -0.408  -1.507  0.00  0.00    +0.077 C 
ATOM     16  C   LIG    1       -0.750  -1.593  -1.305  0.00  0.00    +0.007 A 
ATOM     17  C   LIG    1       -1.584  -2.573  -0.774  0.00  0.00    +0.001 A 
ATOM     18  C   LIG    1       -1.085  -3.484   0.151  0.00  0.00    +0.007 A 
ATOM     19  C   LIG    1        2.671  -4.218   3.216  0.00  0.00    +0.007 A 
ATOM     20  C   LIG    1        3.267  -3.673   4.349  0.00  0.00    +0.001 A 
ATOM     21  C   LIG    1        2.577  -2.742   5.120  0.00  0.00    +0.007 A 
ATOM     22  C   LIG    1       -1.257   0.335   5.021  0.00  0.00    +0.007 A 
ATOM     23  C   LIG    1       -1.733   1.463   4.359  0.00  0.00    +0.001 A 
ATOM     24  C   LIG    1       -0.874   2.219   3.566  0.00  0.00    +0.007 A 
ATOM     25  C   LIG    1        3.529   2.050   1.394  0.00  0.00    +0.007 A 
ATOM     26  C   LIG    1        4.244   1.358   0.419  0.00  0.00    +0.001 A 
ATOM     27  C   LIG    1        3.570   0.576  -0.514  0.00  0.00    +0.007 A 
ATOM     28  C   LIG    1        2.175   0.478  -0.482  0.00  0.00    -0.001 A 
ENDROOT
BRANCH   1  29
ATOM     29  O   LIG    1        0.082   1.098   0.534  0.00  0.00    -0.482 OA
BRANCH  29  30
ATOM     30  C   LIG    1       -0.609   2.077  -0.238  0.00  0.00    +0.324 C 
BRANCH  30  33
ATOM     31  N   LIG    1       -2.865   2.505  -1.057  0.00  0.00    -0.314 N 
ATOM     32  H   LIG    1       -2.422   3.282  -1.527  0.00  0.00    +0.149 HD
ATOM     33  C   LIG    1       -2.103   1.735  -0.261  0.00  0.00    +0.251 C 
ATOM     34  O   LIG    1       -2.550   0.808   0.415  0.00  0.00    -0.272 OA
BRANCH  31  35
ATOM     35  C   LIG    1       -4.314   2.389  -1.241  0.00  0.00    +0.086 C 
BRANCH  35  36
ATOM     36  C   LIG    1       -4.712   2.103  -2.708  0.00  0.00    -0.061 C 
BRANCH  36  38
ATOM     37  C   LIG    1       -4.053  -0.395  -2.684  0.00  0.00    -0.097 C 
ATOM     38  N   LIG    1       -5.171   0.640  -2.921  0.00  0.00    +0.377 N 
ATOM     39  H   LIG    1       -5.903   0.456  -2.248  0.00  0.00    -0.083 HD
ATOM     40  C   LIG    1       -5.796   0.451  -4.317  0.00  0.00    -0.097 C 
ENDBRANCH  36  38
ENDBRANCH  35  36
ENDBRANCH  31  35
ENDBRANCH  30  33
ENDBRANCH  29  30
ENDBRANCH   1  29
BRANCH   5  41
ATOM     41  O   LIG    1        2.257   0.328   3.935  0.00  0.00    -0.482 OA
BRANCH  41  42
ATOM     42  C   LIG    1        3.173   0.859   4.887  0.00  0.00    +0.324 C 
BRANCH  42  43
ATOM     43  C   LIG    1        4.583   0.361   4.548  0.00  0.00    +0.251 C 
ATOM     44  N   LIG    1        5.549   0.705   5.417  0.00  0.00    -0.314 N 
ATOM     45  H   LIG    1        5.299   1.276   6.213  0.00  0.00    +0.149 HD
ATOM     46  O   LIG    1        4.793  -0.313   3.537  0.00  0.00    -0.272 OA
BRANCH  44  47
ATOM     47  C   LIG    1        6.961   0.345   5.295  0.00  0.00    +0.086 C 
BRANCH  47  48
ATOM     48  C   LIG    1        7.297  -1.072   5.819  0.00  0.00    -0.061 C 
BRANCH  48  49
ATOM     49  N   LIG    1        6.915  -2.191   4.819  0.00  0.00    +0.377 N 
ATOM     50  H   LIG    1        5.943  -2.051   4.578  0.00  0.00    -0.083 HD
ATOM     51  C   LIG    1        7.017  -3.580   5.479  0.00  0.00    -0.097 C 
ATOM     52  C   LIG    1        7.717  -2.155   3.502  0.00  0.00    -0.097 C 
ENDBRANCH  48  49
ENDBRANCH  47  48
ENDBRANCH  44  47
ENDBRANCH  42  43
ENDBRANCH  41  42
ENDBRANCH   5  41
BRANCH   9  53
ATOM     53  O   LIG    1       -0.607  -2.546   3.290  0.00  0.00    -0.482 OA
BRANCH  53  54
ATOM     54  C   LIG    1       -1.633  -3.367   3.847  0.00  0.00    +0.324 C 
BRANCH  54  55
ATOM     55  C   LIG    1       -3.018  -2.777   3.539  0.00  0.00    +0.251 C 
ATOM     56  N   LIG    1       -3.082  -1.564   2.958  0.00  0.00    -0.314 N 
ATOM     57  H   LIG    1       -2.216  -1.084   2.758  0.00  0.00    +0.149 HD
ATOM     58  O   LIG    1       -4.019  -3.427   3.842  0.00  0.00    -0.272 OA
BRANCH  56  59
ATOM     59  C   LIG    1       -4.315  -0.853   2.620  0.00  0.00    +0.086 C 
BRANCH  59  60
ATOM     60  C   LIG    1       -4.898  -1.252   1.245  0.00  0.00    -0.061 C 
BRANCH  60  61
ATOM     61  N   LIG    1       -5.705  -2.571   1.305  0.00  0.00    +0.377 N 
ATOM     62  H   LIG    1       -5.131  -3.242   1.797  0.00  0.00    -0.083 HD
ATOM     63  C   LIG    1       -5.950  -3.143  -0.105  0.00  0.00    -0.097 C 
ATOM     64  C   LIG    1       -7.033  -2.450   2.081  0.00  0.00    -0.097 C 
ENDBRANCH  60  61
ENDBRANCH  59  60
ENDBRANCH  56  59
ENDBRANCH  54  55
ENDBRANCH  53  54
ENDBRANCH   9  53
BRANCH  13  65
ATOM     65  O   LIG    1        2.419  -2.390   0.394  0.00  0.00    -0.482 OA
BRANCH  65  66
ATOM     66  C   LIG    1        3.319  -3.119  -0.437  0.00  0.00    +0.324 C 
BRANCH  66  67
ATOM     67  C   LIG    1        4.711  -3.144   0.206  0.00  0.00    +0.251 C 
ATOM     68  N   LIG    1        5.689  -3.661  -0.558  0.00  0.00    -0.314 N 
ATOM     69  H   LIG    1        5.457  -3.961  -1.494  0.00  0.00    +0.149 HD
ATOM     70  O   LIG    1        4.900  -2.719   1.348  0.00  0.00    -0.272 OA
BRANCH  68  71
ATOM     71  C   LIG    1        7.088  -3.815  -0.156  0.00  0.00    +0.086 C 
BRANCH  71  72
ATOM     72  C   LIG    1        7.330  -5.004   0.803  0.00  0.00    -0.061 C 
BRANCH  72  73
ATOM     73  N   LIG    1        7.168  -6.370   0.092  0.00  0.00    +0.377 N 
ATOM     74  H   LIG    1        6.290  -6.343  -0.407  0.00  0.00    -0.083 HD
ATOM     75  C   LIG    1        7.059  -7.520   1.113  0.00  0.00    -0.097 C 
ATOM     76  C   LIG    1        8.278  -6.667  -0.938  0.00  0.00    -0.097 C 
ENDBRANCH  72  73
ENDBRANCH  71  72
ENDBRANCH  68  71
ENDBRANCH  66  67
ENDBRANCH  65  66
ENDBRANCH  13  65
TORSDOF 24
