REMARK  Name = DB13117
REMARK                            x       y       z     vdW  Elec       q    Type
REMARK                         _______ _______ _______ _____ _____    ______ ____
ROOT
ATOM      1  C   LIG    1        0.012   0.018   0.014  0.00  0.00    +0.185 C 
ENDROOT
BRANCH   1   2
ATOM      2  C   LIG    1       -0.557   1.448  -0.006  0.00  0.00    +0.395 C 
ATOM      3  F   LIG    1       -0.139   2.126  -1.075  0.00  0.00    -0.171 F 
ATOM      4  F   LIG    1       -0.197   2.139   1.076  0.00  0.00    -0.171 F 
ATOM      5  F   LIG    1       -1.889   1.424  -0.040  0.00  0.00    -0.171 F 
ENDBRANCH   1   2
BRANCH   1   6
ATOM      6  C   LIG    1        1.549  -0.056   0.017  0.00  0.00    +0.350 C 
ATOM      7  F   LIG    1        2.101   0.529   1.080  0.00  0.00    -0.209 F 
ATOM      8  F   LIG    1        1.991  -1.311  -0.048  0.00  0.00    -0.209 F 
ENDBRANCH   1   6
TORSDOF 2
