REMARK  Name = DB13166
REMARK                            x       y       z     vdW  Elec       q    Type
REMARK                         _______ _______ _______ _____ _____    ______ ____
ROOT
ATOM      1  N   LIG    1       -0.691   1.060  -0.590  0.00  0.00    -0.287 N 
ATOM      2  C   LIG    1        0.192   0.029  -0.499  0.00  0.00    +0.220 C 
ATOM      3  O   LIG    1       -0.178  -1.146  -0.575  0.00  0.00    -0.275 OA
ATOM      4  C   LIG    1       -0.393   2.438  -0.185  0.00  0.00    +0.123 C 
ATOM      5  C   LIG    1       -1.553   2.731   0.766  0.00  0.00    +0.071 C 
ATOM      6  C   LIG    1       -2.756   2.080   0.098  0.00  0.00    +0.050 C 
ATOM      7  C   LIG    1       -2.156   0.847  -0.612  0.00  0.00    +0.186 C 
ENDROOT
BRANCH   2   8
ATOM      8  C   LIG    1        1.713   0.323  -0.389  0.00  0.00    +0.082 C 
ATOM      9  C   LIG    1        2.566  -0.712  -1.159  0.00  0.00    +0.018 C 
BRANCH   8  10
ATOM     10  C   LIG    1        2.187   0.456   1.083  0.00  0.00    +0.090 C 
BRANCH  10  11
ATOM     11  S   LIG    1        1.894  -0.965   2.198  0.00  0.00    -0.082 S 
BRANCH  11  12
ATOM     12  C   LIG    1        1.918  -0.099   3.836  0.00  0.00    +0.220 C 
ATOM     13  O   LIG    1        2.207   1.095   3.939  0.00  0.00    -0.280 OA
BRANCH  12  14
ATOM     14  C   LIG    1        1.743  -0.988   5.026  0.00  0.00    +0.028 A 
ATOM     15  C   LIG    1        0.931  -2.130   4.973  0.00  0.00    +0.012 A 
ATOM     16  C   LIG    1        0.766  -2.928   6.101  0.00  0.00    +0.001 A 
ATOM     17  C   LIG    1        1.405  -2.586   7.290  0.00  0.00    +0.000 A 
ATOM     18  C   LIG    1        2.204  -1.449   7.362  0.00  0.00    +0.001 A 
ATOM     19  C   LIG    1        2.369  -0.648   6.234  0.00  0.00    +0.012 A 
ENDBRANCH  12  14
ENDBRANCH  11  12
ENDBRANCH  10  11
ENDBRANCH   8  10
ENDBRANCH   2   8
BRANCH   7  20
ATOM     20  C   LIG    1       -2.719   0.633  -2.035  0.00  0.00    +0.325 C 
ATOM     21  O   LIG    1       -2.067   0.729  -3.055  0.00  0.00    -0.249 OA
BRANCH  20  22
ATOM     22  O   LIG    1       -4.041   0.303  -1.968  0.00  0.00    -0.479 OA
ATOM     23  H   LIG    1       -4.422   0.152  -2.836  0.00  0.00    +0.295 HD
ENDBRANCH  20  22
ENDBRANCH   7  20
BRANCH   5  24
ATOM     24  S   LIG    1       -1.792   4.490   1.157  0.00  0.00    -0.120 S 
BRANCH  24  25
ATOM     25  C   LIG    1       -0.491   5.050   2.228  0.00  0.00    +0.008 A 
ATOM     26  C   LIG    1        0.466   4.170   2.747  0.00  0.00    +0.015 A 
ATOM     27  C   LIG    1        1.466   4.651   3.587  0.00  0.00    +0.001 A 
ATOM     28  C   LIG    1        1.508   6.006   3.908  0.00  0.00    +0.000 A 
ATOM     29  C   LIG    1        0.556   6.886   3.397  0.00  0.00    +0.001 A 
ATOM     30  C   LIG    1       -0.445   6.406   2.557  0.00  0.00    +0.015 A 
ENDBRANCH  24  25
ENDBRANCH   5  24
TORSDOF 9
