REMARK  Name = DB13955
REMARK                            x       y       z     vdW  Elec       q    Type
REMARK                         _______ _______ _______ _____ _____    ______ ____
ROOT
ATOM      1  C   LIG    1        1.477   0.198   0.215  0.00  0.00    +0.132 A 
ATOM      2  C   LIG    1        2.196   0.722   1.291  0.00  0.00    +0.050 A 
ATOM      3  C   LIG    1        3.595   0.694   1.307  0.00  0.00    -0.040 A 
ATOM      4  C   LIG    1        4.392   1.236   2.489  0.00  0.00    +0.036 C 
ATOM      5  C   LIG    1        5.591   2.103   2.034  0.00  0.00    +0.009 C 
ATOM      6  C   LIG    1        6.282   1.604   0.734  0.00  0.00    +0.000 C 
ATOM      7  C   LIG    1        7.821   1.768   0.708  0.00  0.00    +0.002 C 
ATOM      8  C   LIG    1        8.471   3.094   1.127  0.00  0.00    +0.008 C 
ATOM      9  C   LIG    1        9.881   3.031   0.503  0.00  0.00    +0.045 C 
ATOM     10  C   LIG    1        9.903   1.746  -0.363  0.00  0.00    +0.183 C 
ATOM     11  C   LIG    1        8.419   1.446  -0.681  0.00  0.00    +0.008 C 
ATOM     12  C   LIG    1        7.909   2.372  -1.833  0.00  0.00    +0.015 C 
ATOM     13  C   LIG    1        8.102  -0.043  -0.973  0.00  0.00    +0.011 C 
ATOM     14  C   LIG    1        6.573  -0.298  -1.035  0.00  0.00    +0.009 C 
ATOM     15  C   LIG    1        5.830   0.186   0.252  0.00  0.00    +0.023 C 
ATOM     16  C   LIG    1        4.294   0.134   0.218  0.00  0.00    -0.041 A 
ATOM     17  C   LIG    1        3.559  -0.413  -0.844  0.00  0.00    +0.008 A 
ATOM     18  C   LIG    1        2.167  -0.388  -0.846  0.00  0.00    +0.046 A 
ENDROOT
BRANCH   1  19
ATOM     19  O   LIG    1        0.101   0.213   0.213  0.00  0.00    -0.426 OA
BRANCH  19  20
ATOM     20  C   LIG    1       -0.552   1.342  -0.177  0.00  0.00    +0.312 C 
ATOM     21  O   LIG    1       -0.040   2.402  -0.545  0.00  0.00    -0.250 OA
BRANCH  20  22
ATOM     22  C   LIG    1       -2.072   1.180  -0.125  0.00  0.00    +0.121 C 
BRANCH  22  23
ATOM     23  C   LIG    1       -2.643   0.550  -1.409  0.00  0.00    +0.011 C 
BRANCH  23  24
ATOM     24  C   LIG    1       -4.177   0.440  -1.376  0.00  0.00    +0.001 C 
BRANCH  24  25
ATOM     25  C   LIG    1       -4.764  -0.177  -2.658  0.00  0.00    -0.000 C 
BRANCH  25  27
ATOM     26  C   LIG    1       -6.886  -0.874  -3.914  0.00  0.00    +0.004 C 
ATOM     27  C   LIG    1       -6.300  -0.264  -2.633  0.00  0.00    -0.003 C 
ENDBRANCH  25  27
ENDBRANCH  24  25
ENDBRANCH  23  24
ENDBRANCH  22  23
ENDBRANCH  20  22
ENDBRANCH  19  20
ENDBRANCH   1  19
BRANCH  10  28
ATOM     28  O   LIG    1       10.704   1.864  -1.541  0.00  0.00    -0.461 OA
BRANCH  28  29
ATOM     29  C   LIG    1       12.054   1.825  -1.490  0.00  0.00    +0.307 C 
ATOM     30  O   LIG    1       12.742   1.702  -0.475  0.00  0.00    -0.251 OA
BRANCH  29  31
ATOM     31  C   LIG    1       12.694   1.948  -2.873  0.00  0.00    +0.120 C 
BRANCH  31  32
ATOM     32  C   LIG    1       12.594   0.645  -3.688  0.00  0.00    +0.011 C 
BRANCH  32  33
ATOM     33  C   LIG    1       13.245   0.770  -5.079  0.00  0.00    +0.001 C 
BRANCH  33  34
ATOM     34  C   LIG    1       13.257  -0.538  -5.895  0.00  0.00    -0.000 C 
BRANCH  34  35
ATOM     35  C   LIG    1       11.861  -1.045  -6.306  0.00  0.00    -0.003 C 
ATOM     36  C   LIG    1       11.918  -2.301  -7.187  0.00  0.00    +0.004 C 
ENDBRANCH  34  35
ENDBRANCH  33  34
ENDBRANCH  32  33
ENDBRANCH  31  32
ENDBRANCH  29  31
ENDBRANCH  28  29
ENDBRANCH  10  28
TORSDOF 14
