REMARK  Name = DB13155
REMARK                            x       y       z     vdW  Elec       q    Type
REMARK                         _______ _______ _______ _____ _____    ______ ____
ROOT
ATOM      1  C   LIG    1       -2.102   1.462   0.171  0.00  0.00    +0.179 C 
ATOM      2  C   LIG    1       -2.621   0.675   1.401  0.00  0.00    +0.177 C 
ATOM      3  C   LIG    1       -1.992  -0.737   1.442  0.00  0.00    +0.180 C 
ATOM      4  C   LIG    1       -0.456  -0.692   1.233  0.00  0.00    +0.214 C 
ATOM      5  C   LIG    1       -0.117   0.179   0.012  0.00  0.00    +0.339 C 
ATOM      6  O   LIG    1       -0.671   1.457   0.200  0.00  0.00    -0.331 OA
ENDROOT
BRANCH   2   7
ATOM      7  O   LIG    1       -4.038   0.605   1.412  0.00  0.00    -0.386 OA
ATOM      8  H   LIG    1       -4.387   1.472   1.630  0.00  0.00    +0.210 HD
ENDBRANCH   2   7
BRANCH   3   9
ATOM      9  O   LIG    1       -2.330  -1.425   2.635  0.00  0.00    -0.386 OA
ATOM     10  H   LIG    1       -1.958  -0.947   3.380  0.00  0.00    +0.210 HD
ENDBRANCH   3   9
BRANCH   4  11
ATOM     11  O   LIG    1        0.088  -1.994   1.102  0.00  0.00    -0.383 OA
ATOM     12  H   LIG    1       -0.520  -2.529   0.585  0.00  0.00    +0.210 HD
ENDBRANCH   4  11
BRANCH   1  13
ATOM     13  C   LIG    1       -2.574   2.932   0.147  0.00  0.00    +0.190 C 
BRANCH  13  14
ATOM     14  O   LIG    1       -2.181   3.564  -1.055  0.00  0.00    -0.392 OA
ATOM     15  H   LIG    1       -2.474   4.478  -1.031  0.00  0.00    +0.210 HD
ENDBRANCH  13  14
ENDBRANCH   1  13
BRANCH   5  16
ATOM     16  O   LIG    1        1.278   0.272  -0.055  0.00  0.00    -0.457 OA
BRANCH  16  17
ATOM     17  C   LIG    1        1.892   0.793  -1.182  0.00  0.00    +0.166 A 
ATOM     18  C   LIG    1        1.196   1.400  -2.245  0.00  0.00    +0.061 A 
ATOM     19  C   LIG    1        1.889   1.905  -3.345  0.00  0.00    +0.021 A 
ATOM     20  C   LIG    1        1.225   2.547  -4.480  0.00  0.00    +0.018 A 
ATOM     21  C   LIG    1        1.926   3.025  -5.525  0.00  0.00    +0.092 A 
ATOM     22  C   LIG    1        3.394   2.919  -5.566  0.00  0.00    +0.337 A 
ATOM     23  O   LIG    1        4.138   3.317  -6.460  0.00  0.00    -0.245 OA
ATOM     24  O   LIG    1        4.011   2.304  -4.478  0.00  0.00    -0.422 OA
ATOM     25  C   LIG    1        3.284   1.814  -3.398  0.00  0.00    +0.143 A 
ATOM     26  C   LIG    1        3.986   1.221  -2.351  0.00  0.00    +0.096 A 
ATOM     27  C   LIG    1        3.293   0.716  -1.249  0.00  0.00    +0.162 A 
BRANCH  27  28
ATOM     28  O   LIG    1        4.007   0.138  -0.230  0.00  0.00    -0.503 OA
ATOM     29  H   LIG    1        4.954   0.143  -0.385  0.00  0.00    +0.292 HD
ENDBRANCH  27  28
ENDBRANCH  16  17
ENDBRANCH   5  16
TORSDOF 8
