REMARK  Name = DB13072
REMARK                            x       y       z     vdW  Elec       q    Type
REMARK                         _______ _______ _______ _____ _____    ______ ____
ROOT
ATOM      1  C   LIG    1        1.457   0.088  -0.176  0.00  0.00    +0.162 A 
ATOM      2  N   LIG    1        2.094  -0.961  -0.758  0.00  0.00    -0.212 NA
ATOM      3  C   LIG    1        3.456  -0.972  -0.738  0.00  0.00    +0.129 A 
ATOM      4  C   LIG    1        4.194   0.041  -0.093  0.00  0.00    +0.016 A 
ATOM      5  C   LIG    1        5.725   0.063  -0.007  0.00  0.00    +0.056 C 
ATOM      6  C   LIG    1        6.280   1.462   0.343  0.00  0.00    +0.090 C 
ATOM      7  N   LIG    1        5.556   2.007   1.496  0.00  0.00    -0.289 NA
ATOM      8  C   LIG    1        4.168   2.290   1.108  0.00  0.00    +0.140 C 
ATOM      9  C   LIG    1        3.453   1.093   0.483  0.00  0.00    +0.064 A 
ATOM     10  N   LIG    1        2.095   1.122   0.433  0.00  0.00    -0.231 NA
ENDROOT
BRANCH   3  11
ATOM     11  N   LIG    1        4.081  -2.097  -1.271  0.00  0.00    -0.308 N 
ATOM     12  C   LIG    1        3.559  -2.756  -2.495  0.00  0.00    +0.097 C 
ATOM     13  C   LIG    1        3.325  -1.792  -3.680  0.00  0.00    +0.030 C 
ATOM     14  C   LIG    1        4.474  -3.916  -2.980  0.00  0.00    +0.182 C 
ATOM     15  O   LIG    1        4.785  -4.819  -1.930  0.00  0.00    -0.376 OA
ATOM     16  C   LIG    1        5.418  -4.173  -0.841  0.00  0.00    +0.179 C 
ATOM     17  C   LIG    1        4.462  -3.111  -0.273  0.00  0.00    +0.135 C 
ENDBRANCH   3  11
BRANCH   1  21
ATOM     18  C   LIG    1       -2.874   0.104  -0.226  0.00  0.00    +0.035 A 
ATOM     19  C   LIG    1       -2.169   1.198   0.293  0.00  0.00    +0.024 A 
ATOM     20  C   LIG    1       -0.777   1.190   0.302  0.00  0.00    +0.013 A 
ATOM     21  C   LIG    1       -0.048   0.098  -0.199  0.00  0.00    +0.019 A 
ATOM     22  C   LIG    1       -0.774  -0.988  -0.714  0.00  0.00    +0.013 A 
ATOM     23  C   LIG    1       -2.165  -0.988  -0.725  0.00  0.00    +0.024 A 
BRANCH  18  27
ATOM     24  N   LIG    1       -6.449   0.401  -0.118  0.00  0.00    -0.299 N 
ATOM     25  H   LIG    1       -6.537  -0.595  -0.251  0.00  0.00    +0.150 HD
ATOM     26  C   LIG    1       -5.219   0.931  -0.016  0.00  0.00    +0.304 C 
ATOM     27  N   LIG    1       -4.278  -0.003  -0.266  0.00  0.00    -0.269 N 
ATOM     28  H   LIG    1       -4.615  -0.909  -0.556  0.00  0.00    +0.156 HD
ATOM     29  O   LIG    1       -5.009   2.114   0.253  0.00  0.00    -0.253 OA
BRANCH  24  31
ATOM     30  C   LIG    1       -8.023   1.926  -1.333  0.00  0.00    +0.024 C 
ATOM     31  C   LIG    1       -7.701   1.154  -0.044  0.00  0.00    +0.102 C 
ENDBRANCH  24  31
ENDBRANCH  18  27
ENDBRANCH   1  21
BRANCH   7  32
ATOM     32  C   LIG    1        6.217   3.203   2.031  0.00  0.00    +0.108 C 
ATOM     33  C   LIG    1        5.703   3.734   3.384  0.00  0.00    +0.181 C 
ATOM     34  O   LIG    1        6.961   3.321   4.063  0.00  0.00    -0.377 OA
ATOM     35  C   LIG    1        7.564   2.982   2.745  0.00  0.00    +0.181 C 
ENDBRANCH   7  32
TORSDOF 5
