REMARK  Name = DB13471
REMARK                            x       y       z     vdW  Elec       q    Type
REMARK                         _______ _______ _______ _____ _____    ______ ____
ROOT
ATOM      1  C   LIG    1        1.353  -0.114   0.052  0.00  0.00    +0.118 C 
ATOM      2  C   LIG    1        2.012  -0.684   1.358  0.00  0.00    +0.207 C 
ATOM      3  O   LIG    1        2.012   0.367   2.351  0.00  0.00    -0.482 OA
ATOM      4  C   LIG    1        3.272   0.915   2.341  0.00  0.00    +0.166 A 
ATOM      5  C   LIG    1        4.140   0.154   1.601  0.00  0.00    +0.013 A 
ATOM      6  C   LIG    1        5.433   0.575   1.287  0.00  0.00    -0.041 A 
ATOM      7  C   LIG    1        5.867   1.772   1.877  0.00  0.00    +0.007 A 
ATOM      8  C   LIG    1        5.016   2.517   2.712  0.00  0.00    +0.049 A 
ATOM      9  C   LIG    1        6.233  -0.230   0.258  0.00  0.00    +0.023 C 
ATOM     10  C   LIG    1        5.608  -1.635  -0.048  0.00  0.00    -0.031 C 
ATOM     11  N   LIG    1        6.079  -2.613   1.086  0.00  0.00    +0.384 N 
ATOM     12  H   LIG    1        7.062  -2.421   1.220  0.00  0.00    -0.081 HD
ATOM     13  C   LIG    1        5.392  -2.397   2.464  0.00  0.00    -0.077 C 
ATOM     14  C   LIG    1        3.866  -2.226   2.288  0.00  0.00    -0.001 C 
ATOM     15  C   LIG    1        4.032  -1.581  -0.177  0.00  0.00    +0.068 C 
ATOM     16  C   LIG    1        3.521  -0.610  -1.277  0.00  0.00    +0.036 C 
ATOM     17  C   LIG    1        3.697   2.098   2.938  0.00  0.00    +0.159 A 
ATOM     18  C   LIG    1        3.490  -1.148   1.223  0.00  0.00    +0.064 C 
ATOM     19  C   LIG    1        1.985  -0.474  -1.321  0.00  0.00    +0.029 C 
ENDROOT
BRANCH   1  21
ATOM     20  C   LIG    1       -0.654   1.271   0.379  0.00  0.00    +0.132 C 
ATOM     21  N   LIG    1       -0.126  -0.084   0.153  0.00  0.00    -0.294 N 
ATOM     22  C   LIG    1       -0.980  -1.145   0.021  0.00  0.00    +0.240 C 
ATOM     23  O   LIG    1       -2.205  -0.999   0.052  0.00  0.00    -0.271 OA
BRANCH  22  24
ATOM     24  C   LIG    1       -0.402  -2.470  -0.139  0.00  0.00    +0.068 C 
ATOM     25  C   LIG    1       -1.144  -3.571  -0.385  0.00  0.00    +0.016 C 
BRANCH  25  26
ATOM     26  C   LIG    1       -0.644  -4.922  -0.548  0.00  0.00    +0.013 A 
ATOM     27  C   LIG    1        0.674  -5.374  -0.507  0.00  0.00    +0.202 A 
ATOM     28  O   LIG    1        0.753  -6.714  -0.703  0.00  0.00    -0.470 OA
ATOM     29  C   LIG    1       -0.517  -7.149  -0.874  0.00  0.00    +0.195 A 
ATOM     30  C   LIG    1       -1.393  -6.082  -0.785  0.00  0.00    +0.049 A 
ENDBRANCH  25  26
ENDBRANCH  22  24
ENDBRANCH   1  21
BRANCH  15  31
ATOM     31  O   LIG    1        3.481  -2.850  -0.507  0.00  0.00    -0.389 OA
ATOM     32  H   LIG    1        3.789  -3.097  -1.382  0.00  0.00    +0.210 HD
ENDBRANCH  15  31
BRANCH  17  33
ATOM     33  O   LIG    1        2.838   2.844   3.701  0.00  0.00    -0.503 OA
ATOM     34  H   LIG    1        1.963   2.454   3.767  0.00  0.00    +0.292 HD
ENDBRANCH  17  33
BRANCH  11  35
ATOM     35  C   LIG    1        6.031  -4.102   0.651  0.00  0.00    -0.075 C 
BRANCH  35  36
ATOM     36  C   LIG    1        7.056  -4.933   1.444  0.00  0.00    -0.028 C 
ATOM     37  C   LIG    1        6.650  -5.683   2.691  0.00  0.00    +0.002 C 
ATOM     38  C   LIG    1        6.957  -6.438   1.412  0.00  0.00    +0.002 C 
ENDBRANCH  35  36
ENDBRANCH  11  35
TORSDOF 7
