REMARK  Name = DB13751
REMARK                            x       y       z     vdW  Elec       q    Type
REMARK                         _______ _______ _______ _____ _____    ______ ____
ROOT
ATOM      1  C   LIG    1       -0.954   3.066  -1.719  0.00  0.00    +0.010 C 
ATOM      2  C   LIG    1       -0.164   1.756  -1.526  0.00  0.00    +0.033 C 
ATOM      3  C   LIG    1       -0.671   0.983  -0.286  0.00  0.00    +0.127 C 
ATOM      4  C   LIG    1       -2.204   0.669  -0.364  0.00  0.00    -0.005 C 
ATOM      5  C   LIG    1       -2.486  -0.377  -1.477  0.00  0.00    +0.014 C 
ATOM      6  C   LIG    1       -2.608   0.085   1.021  0.00  0.00    +0.014 C 
ATOM      7  C   LIG    1       -2.955   2.050  -0.589  0.00  0.00    +0.004 C 
ATOM      8  C   LIG    1       -4.501   1.981  -0.491  0.00  0.00    +0.005 C 
ATOM      9  C   LIG    1       -5.091   3.379  -0.271  0.00  0.00    +0.008 C 
ATOM     10  C   LIG    1       -4.760   4.395  -1.408  0.00  0.00    -0.013 C 
ATOM     11  C   LIG    1       -5.598   3.944  -2.658  0.00  0.00    +0.013 C 
ATOM     12  C   LIG    1       -5.143   5.899  -0.961  0.00  0.00    -0.004 C 
ATOM     13  C   LIG    1       -4.383   6.357   0.328  0.00  0.00    +0.016 C 
ATOM     14  C   LIG    1       -6.682   6.039  -0.651  0.00  0.00    +0.012 C 
ATOM     15  C   LIG    1       -7.217   7.479  -0.695  0.00  0.00    +0.008 C 
ATOM     16  C   LIG    1       -6.946   8.140  -2.066  0.00  0.00    -0.025 C 
ATOM     17  C   LIG    1       -7.568   7.324  -3.237  0.00  0.00    +0.012 C 
ATOM     18  C   LIG    1       -7.601   9.559  -2.135  0.00  0.00    +0.008 C 
ATOM     19  C   LIG    1       -6.892  10.659  -1.307  0.00  0.00    +0.018 C 
ATOM     20  C   LIG    1       -5.364  10.788  -1.600  0.00  0.00    +0.065 C 
ATOM     21  C   LIG    1       -4.703  11.825  -0.660  0.00  0.00    +0.023 C 
ATOM     22  C   LIG    1       -4.743   9.376  -1.385  0.00  0.00    +0.026 C 
ATOM     23  C   LIG    1       -5.399   8.252  -2.244  0.00  0.00    +0.023 C 
ATOM     24  C   LIG    1       -4.687   6.884  -2.093  0.00  0.00    -0.056 C 
ATOM     25  C   LIG    1       -3.644   6.586  -2.903  0.00  0.00    +0.046 C 
ATOM     26  C   LIG    1       -2.850   5.366  -2.857  0.00  0.00    +0.160 C 
ATOM     27  O   LIG    1       -1.967   5.199  -3.696  0.00  0.00    -0.292 OA
ATOM     28  C   LIG    1       -3.204   4.337  -1.737  0.00  0.00    +0.073 C 
ATOM     29  C   LIG    1       -2.509   2.897  -1.852  0.00  0.00    -0.018 C 
ATOM     30  C   LIG    1       -2.840   2.206  -3.218  0.00  0.00    +0.012 C 
ENDROOT
BRANCH  20  31
ATOM     31  C   LIG    1       -5.088  11.293  -3.052  0.00  0.00    +0.311 C 
ATOM     32  O   LIG    1       -4.135  10.915  -3.732  0.00  0.00    -0.250 OA
BRANCH  31  33
ATOM     33  O   LIG    1       -5.985  12.235  -3.470  0.00  0.00    -0.480 OA
ATOM     34  H   LIG    1       -5.795  12.550  -4.356  0.00  0.00    +0.295 HD
ENDBRANCH  31  33
ENDBRANCH  20  31
BRANCH   3  35
ATOM     35  O   LIG    1        0.057  -0.232  -0.077  0.00  0.00    -0.345 OA
BRANCH  35  36
ATOM     36  C   LIG    1        1.400  -0.153   0.320  0.00  0.00    +0.283 C 
ATOM     37  O   LIG    1        1.584   0.544   1.528  0.00  0.00    -0.331 OA
ATOM     38  C   LIG    1        0.942  -0.052   2.665  0.00  0.00    +0.260 C 
ATOM     39  C   LIG    1        1.419  -1.506   2.920  0.00  0.00    +0.185 C 
ATOM     40  C   LIG    1        1.309  -2.326   1.617  0.00  0.00    +0.180 C 
ATOM     41  C   LIG    1        1.954  -1.585   0.424  0.00  0.00    +0.208 C 
BRANCH  38  42
ATOM     42  C   LIG    1        1.244   0.856   3.881  0.00  0.00    +0.337 C 
ATOM     43  O   LIG    1        0.508   0.905   4.864  0.00  0.00    -0.248 OA
BRANCH  42  44
ATOM     44  O   LIG    1        2.395   1.582   3.752  0.00  0.00    -0.479 OA
ATOM     45  H   LIG    1        2.562   2.139   4.515  0.00  0.00    +0.295 HD
ENDBRANCH  42  44
ENDBRANCH  38  42
BRANCH  39  46
ATOM     46  O   LIG    1        0.690  -2.134   3.963  0.00  0.00    -0.386 OA
ATOM     47  H   LIG    1        1.124  -2.962   4.181  0.00  0.00    +0.210 HD
ENDBRANCH  39  46
BRANCH  40  48
ATOM     48  O   LIG    1        1.892  -3.609   1.779  0.00  0.00    -0.386 OA
ATOM     49  H   LIG    1        2.037  -3.986   0.907  0.00  0.00    +0.210 HD
ENDBRANCH  40  48
BRANCH  41  50
ATOM     50  O   LIG    1        1.716  -2.341  -0.767  0.00  0.00    -0.338 OA
BRANCH  50  51
ATOM     51  C   LIG    1        2.619  -2.174  -1.822  0.00  0.00    +0.283 C 
ATOM     52  O   LIG    1        2.420  -0.934  -2.453  0.00  0.00    -0.332 OA
ATOM     53  C   LIG    1        3.394  -0.681  -3.475  0.00  0.00    +0.260 C 
ATOM     54  C   LIG    1        3.252  -1.709  -4.631  0.00  0.00    +0.185 C 
ATOM     55  C   LIG    1        3.268  -3.148  -4.067  0.00  0.00    +0.179 C 
ATOM     56  C   LIG    1        2.342  -3.299  -2.833  0.00  0.00    +0.201 C 
BRANCH  53  57
ATOM     57  C   LIG    1        3.149   0.757  -3.980  0.00  0.00    +0.337 C 
ATOM     58  O   LIG    1        4.067   1.506  -4.310  0.00  0.00    -0.248 OA
BRANCH  57  59
ATOM     59  O   LIG    1        1.826   1.087  -4.047  0.00  0.00    -0.479 OA
ATOM     60  H   LIG    1        1.689   1.979  -4.375  0.00  0.00    +0.295 HD
ENDBRANCH  57  59
ENDBRANCH  53  57
BRANCH  54  61
ATOM     61  O   LIG    1        4.245  -1.540  -5.632  0.00  0.00    -0.386 OA
ATOM     62  H   LIG    1        5.088  -1.371  -5.205  0.00  0.00    +0.210 HD
ENDBRANCH  54  61
BRANCH  55  63
ATOM     63  O   LIG    1        2.954  -4.103  -5.067  0.00  0.00    -0.386 OA
ATOM     64  H   LIG    1        2.068  -3.926  -5.393  0.00  0.00    +0.210 HD
ENDBRANCH  55  63
BRANCH  56  65
ATOM     65  O   LIG    1        2.494  -4.575  -2.235  0.00  0.00    -0.384 OA
ATOM     66  H   LIG    1        2.590  -5.227  -2.934  0.00  0.00    +0.210 HD
ENDBRANCH  56  65
ENDBRANCH  50  51
ENDBRANCH  41  50
ENDBRANCH  35  36
ENDBRANCH   3  35
TORSDOF 15
