REMARK  Name = DB13256
REMARK                            x       y       z     vdW  Elec       q    Type
REMARK                         _______ _______ _______ _____ _____    ______ ____
ROOT
ATOM      1  C   LIG    1        5.516  -0.422  -0.832  0.00  0.00    +0.322 C 
ATOM      2  N   LIG    1        6.200   0.643  -1.047  0.00  0.00    -0.040 NA
ATOM      3  C   LIG    1        7.559   0.671  -1.421  0.00  0.00    +0.190 A 
ATOM      4  C   LIG    1        8.594  -0.068  -0.791  0.00  0.00    +0.063 A 
ATOM      5  S   LIG    1        8.235  -1.254   0.470  0.00  0.00    -0.084 S 
ATOM      6  C   LIG    1        7.152  -2.331  -0.417  0.00  0.00    +0.028 A 
ATOM      7  C   LIG    1        7.510  -3.671  -0.581  0.00  0.00    +0.017 A 
ATOM      8  C   LIG    1        6.710  -4.533  -1.326  0.00  0.00    +0.021 A 
ATOM      9  C   LIG    1        5.548  -4.055  -1.923  0.00  0.00    +0.042 A 
ATOM     10 CL   LIG    1        4.557  -5.114  -2.859  0.00  0.00    -0.084 Cl
ATOM     11  C   LIG    1        5.185  -2.719  -1.764  0.00  0.00    +0.037 A 
ATOM     12  C   LIG    1        9.928   0.102  -1.174  0.00  0.00    +0.019 A 
ATOM     13  C   LIG    1       10.271   1.020  -2.161  0.00  0.00    +0.001 A 
ATOM     14  C   LIG    1        9.278   1.781  -2.766  0.00  0.00    +0.004 A 
ATOM     15  C   LIG    1        7.949   1.612  -2.385  0.00  0.00    +0.056 A 
ATOM     16  C   LIG    1        5.965  -1.834  -0.998  0.00  0.00    +0.081 A 
ENDROOT
BRANCH   1  21
ATOM     17  C   LIG    1       -0.083  -0.576  -0.612  0.00  0.00    +0.105 C 
ATOM     18  N   LIG    1        1.279  -0.277  -0.183  0.00  0.00    -0.298 NA
ATOM     19  C   LIG    1        1.941   0.585  -1.162  0.00  0.00    +0.128 C 
ATOM     20  C   LIG    1        3.374   0.937  -0.702  0.00  0.00    +0.241 C 
ATOM     21  N   LIG    1        4.178  -0.272  -0.425  0.00  0.00    -0.218 N 
ATOM     22  C   LIG    1        3.470  -1.204   0.477  0.00  0.00    +0.241 C 
ATOM     23  C   LIG    1        2.041  -1.515  -0.020  0.00  0.00    +0.128 C 
ENDBRANCH   1  21
TORSDOF 1
