REMARK  Name = DB13216
REMARK                            x       y       z     vdW  Elec       q    Type
REMARK                         _______ _______ _______ _____ _____    ______ ____
ROOT
ATOM      1  C   LIG    1        1.489   0.153   2.326  0.00  0.00    +0.229 A 
ATOM      2  O   LIG    1        1.152  -0.792   3.235  0.00  0.00    -0.338 OA
ATOM      3  N   LIG    1        0.663  -0.074   4.323  0.00  0.00    -0.056 NA
ATOM      4  C   LIG    1        0.773   1.185   3.944  0.00  0.00    +0.202 A 
ATOM      5  N   LIG    1        1.274   1.373   2.735  0.00  0.00    -0.191 NA
ENDROOT
BRANCH   4   6
ATOM      6  C   LIG    1        0.362   2.331   4.830  0.00  0.00    +0.022 A 
ATOM      7  C   LIG    1        0.369   3.646   4.343  0.00  0.00    +0.012 A 
ATOM      8  C   LIG    1       -0.006   4.708   5.163  0.00  0.00    +0.001 A 
ATOM      9  C   LIG    1       -0.391   4.462   6.478  0.00  0.00    +0.000 A 
ATOM     10  C   LIG    1       -0.406   3.163   6.978  0.00  0.00    +0.001 A 
ATOM     11  C   LIG    1       -0.032   2.102   6.157  0.00  0.00    +0.012 A 
ENDBRANCH   4   6
BRANCH   1  12
ATOM     12  C   LIG    1        2.069  -0.302   1.001  0.00  0.00    +0.114 C 
BRANCH  12  13
ATOM     13  C   LIG    1        1.476   0.416  -0.236  0.00  0.00    +0.094 C 
BRANCH  13  14
ATOM     14  N   LIG    1        0.011   0.341  -0.320  0.00  0.00    -0.302 NA
BRANCH  14  16
ATOM     15  C   LIG    1       -2.006   1.458  -1.329  0.00  0.00    +0.020 C 
ATOM     16  C   LIG    1       -0.476   1.291  -1.329  0.00  0.00    +0.081 C 
ENDBRANCH  14  16
BRANCH  14  17
ATOM     17  C   LIG    1       -0.468  -1.031  -0.553  0.00  0.00    +0.081 C 
ATOM     18  C   LIG    1       -1.545  -1.400   0.477  0.00  0.00    +0.020 C 
ENDBRANCH  14  17
ENDBRANCH  13  14
ENDBRANCH  12  13
ENDBRANCH   1  12
TORSDOF 6
