REMARK  Name = DB13867
REMARK                            x       y       z     vdW  Elec       q    Type
REMARK                         _______ _______ _______ _____ _____    ______ ____
ROOT
ATOM      1  C   LIG    1       -4.731  -1.535   6.263  0.00  0.00    +0.047 C 
ATOM      2  C   LIG    1       -3.570  -1.841   5.651  0.00  0.00    -0.009 C 
ATOM      3  C   LIG    1       -3.434  -2.498   4.267  0.00  0.00    +0.047 C 
ATOM      4  C   LIG    1       -2.785  -3.890   4.510  0.00  0.00    +0.023 C 
ATOM      5  C   LIG    1       -2.644  -1.565   3.254  0.00  0.00    +0.153 C 
ATOM      6  F   LIG    1       -3.342  -0.420   3.209  0.00  0.00    -0.238 F 
ATOM      7  C   LIG    1       -1.208  -1.093   3.707  0.00  0.00    +0.154 C 
ATOM      8  C   LIG    1       -0.489  -0.236   2.624  0.00  0.00    +0.044 C 
ATOM      9  C   LIG    1       -0.446  -0.904   1.212  0.00  0.00    +0.010 C 
ATOM     10  C   LIG    1        0.421  -2.212   1.240  0.00  0.00    +0.015 C 
ATOM     11  C   LIG    1       -0.036   0.037   0.011  0.00  0.00    +0.142 C 
ATOM     12  C   LIG    1       -0.665  -0.693  -1.234  0.00  0.00    +0.027 C 
ATOM     13  C   LIG    1       -0.971   0.195  -2.460  0.00  0.00    +0.011 C 
ATOM     14  C   LIG    1       -1.900  -1.455  -0.693  0.00  0.00    +0.011 C 
ATOM     15  C   LIG    1       -1.922  -1.165   0.816  0.00  0.00    +0.005 C 
ATOM     16  C   LIG    1       -2.663  -2.131   1.785  0.00  0.00    +0.037 C 
ATOM     17  C   LIG    1       -4.111  -2.417   1.320  0.00  0.00    +0.048 C 
ATOM     18  C   LIG    1       -4.869  -3.351   2.278  0.00  0.00    +0.194 C 
ATOM     19  F   LIG    1       -6.121  -3.502   1.840  0.00  0.00    -0.241 F 
ATOM     20  C   LIG    1       -4.862  -2.734   3.686  0.00  0.00    -0.020 C 
ATOM     21  C   LIG    1       -5.995  -2.402   4.358  0.00  0.00    +0.054 C 
ATOM     22  C   LIG    1       -6.046  -1.787   5.684  0.00  0.00    +0.179 C 
ATOM     23  O   LIG    1       -7.096  -1.506   6.257  0.00  0.00    -0.288 OA
ENDROOT
BRANCH   7  24
ATOM     24  O   LIG    1       -0.362  -2.131   4.162  0.00  0.00    -0.389 OA
ATOM     25  H   LIG    1       -0.790  -2.572   4.899  0.00  0.00    +0.210 HD
ENDBRANCH   7  24
BRANCH  11  26
ATOM     26  O   LIG    1       -0.563   1.358   0.139  0.00  0.00    -0.379 OA
ATOM     27  H   LIG    1       -1.520   1.301   0.178  0.00  0.00    +0.211 HD
ENDBRANCH  11  26
BRANCH  11  28
ATOM     28  C   LIG    1        1.512   0.222  -0.117  0.00  0.00    +0.224 C 
ATOM     29  O   LIG    1        2.168  -0.431  -0.931  0.00  0.00    -0.282 OA
BRANCH  28  30
ATOM     30  S   LIG    1        2.293   1.460   1.022  0.00  0.00    -0.052 S 
BRANCH  30  31
ATOM     31  C   LIG    1        4.030   1.267   0.520  0.00  0.00    +0.290 C 
ATOM     32  F   LIG    1        4.266   1.841  -0.659  0.00  0.00    -0.237 F 
ENDBRANCH  30  31
ENDBRANCH  28  30
ENDBRANCH  11  28
TORSDOF 5
