REMARK  Name = DB13877
REMARK                            x       y       z     vdW  Elec       q    Type
REMARK                         _______ _______ _______ _____ _____    ______ ____
ROOT
ATOM      1  C   LIG    1       -0.691  -1.187  -0.001  0.00  0.00    +0.014 A 
ATOM      2  C   LIG    1        0.005   0.030   0.047  0.00  0.00    +0.039 A 
ATOM      3  C   LIG    1       -0.738   1.223   0.051  0.00  0.00    +0.046 A 
ATOM      4  C   LIG    1       -2.136   1.202   0.014  0.00  0.00    +0.135 A 
ATOM      5  C   LIG    1       -2.811  -0.024  -0.030  0.00  0.00    +0.043 A 
ATOM      6  I   LIG    1       -4.904  -0.121  -0.085  0.00  0.00    -0.041 I 
ATOM      7  C   LIG    1       -2.084  -1.213  -0.038  0.00  0.00    +0.017 A 
ENDROOT
BRANCH   2   8
ATOM      8  C   LIG    1        1.519   0.031   0.084  0.00  0.00    +0.242 C 
ATOM      9  O   LIG    1        2.167  -0.992  -0.134  0.00  0.00    -0.270 OA
ATOM     10  N   LIG    1        2.128   1.189   0.364  0.00  0.00    -0.325 N 
ATOM     11  H   LIG    1        3.136   1.233   0.398  0.00  0.00    +0.145 HD
ATOM     12  H   LIG    1        1.587   2.021   0.547  0.00  0.00    +0.145 HD
ENDBRANCH   2   8
BRANCH   4  13
ATOM     13  N   LIG    1       -2.874   2.470   0.024  0.00  0.00    +0.007 N 
ATOM     14  O   LIG    1       -3.174   2.960  -1.058  0.00  0.00    -0.130 OA
BRANCH  13  15
ATOM     15  O   LIG    1       -3.138   2.962   1.116  0.00  0.00    -0.396 OA
ATOM     16  H   LIG    1       -2.875   2.526   1.902  0.00  0.00    +0.329 HD
ENDBRANCH  13  15
ENDBRANCH   4  13
TORSDOF 3
