REMARK  Name = DB13053
REMARK                            x       y       z     vdW  Elec       q    Type
REMARK                         _______ _______ _______ _____ _____    ______ ____
ROOT
ATOM      1  C   LIG    1       -4.784  -1.392  -0.500  0.00  0.00    +0.064 C 
ATOM      2  C   LIG    1       -4.266   0.045  -0.251  0.00  0.00    +0.155 C 
ATOM      3  C   LIG    1       -2.742   0.064  -0.307  0.00  0.00    +0.023 A 
ATOM      4  C   LIG    1       -2.029   1.247  -0.519  0.00  0.00    +0.010 A 
ATOM      5  C   LIG    1       -0.636   1.270  -0.455  0.00  0.00    +0.009 A 
ATOM      6  C   LIG    1        0.087   0.109  -0.165  0.00  0.00    -0.014 A 
ATOM      7  C   LIG    1       -0.620  -1.075   0.073  0.00  0.00    +0.054 A 
ATOM      8  C   LIG    1       -2.014  -1.098   0.013  0.00  0.00    +0.127 A 
ATOM      9  O   LIG    1       -2.597  -2.344   0.167  0.00  0.00    -0.491 OA
ATOM     10  C   LIG    1       -4.005  -2.362   0.425  0.00  0.00    +0.235 C 
ENDROOT
BRANCH   6  11
ATOM     11  C   LIG    1        1.579   0.130  -0.089  0.00  0.00    -0.003 A 
ATOM     12  C   LIG    1        2.413   0.539  -1.161  0.00  0.00    +0.067 A 
ATOM     13  C   LIG    1        3.803   0.554  -0.976  0.00  0.00    +0.016 A 
ATOM     14  C   LIG    1        4.372   0.166   0.233  0.00  0.00    +0.013 A 
ATOM     15  C   LIG    1        3.563  -0.248   1.293  0.00  0.00    +0.055 A 
ATOM     16  C   LIG    1        2.176  -0.267   1.116  0.00  0.00    +0.021 A 
BRANCH  15  17
ATOM     17  C   LIG    1        4.190  -0.689   2.615  0.00  0.00    +0.417 C 
ATOM     18  F   LIG    1        3.400  -1.536   3.279  0.00  0.00    -0.166 F 
ATOM     19  F   LIG    1        4.395   0.384   3.378  0.00  0.00    -0.166 F 
ATOM     20  F   LIG    1        5.361  -1.297   2.414  0.00  0.00    -0.166 F 
ENDBRANCH  15  17
BRANCH  12  21
ATOM     21  C   LIG    1        1.872   0.934  -2.501  0.00  0.00    +0.337 C 
ATOM     22  O   LIG    1        2.022   2.127  -2.854  0.00  0.00    -0.245 OA
BRANCH  21  23
ATOM     23  O   LIG    1        1.313   0.044  -3.183  0.00  0.00    -0.477 OA
ATOM     24  H   LIG    1        1.240  -0.827  -2.847  0.00  0.00    +0.295 HD
ENDBRANCH  21  23
ENDBRANCH  12  21
ENDBRANCH   6  11
BRANCH   2  25
ATOM     25  O   LIG    1       -4.760   0.546   0.978  0.00  0.00    -0.387 OA
ATOM     26  H   LIG    1       -4.579   1.488   1.014  0.00  0.00    +0.210 HD
ENDBRANCH   2  25
BRANCH   1  27
ATOM     27  C   LIG    1       -4.728  -1.791  -1.999  0.00  0.00    +0.044 C 
BRANCH  27  31
ATOM     28  C   LIG    1       -6.502  -5.616  -2.859  0.00  0.00    +0.000 A 
ATOM     29  C   LIG    1       -7.318  -4.499  -2.689  0.00  0.00    +0.000 A 
ATOM     30  C   LIG    1       -6.744  -3.262  -2.412  0.00  0.00    +0.003 A 
ATOM     31  C   LIG    1       -5.355  -3.146  -2.304  0.00  0.00    -0.047 A 
ATOM     32  C   LIG    1       -4.542  -4.270  -2.477  0.00  0.00    +0.003 A 
ATOM     33  C   LIG    1       -5.117  -5.507  -2.754  0.00  0.00    +0.000 A 
ENDBRANCH  27  31
ENDBRANCH   1  27
TORSDOF 7
