REMARK  Name = DB13781
REMARK                            x       y       z     vdW  Elec       q    Type
REMARK                         _______ _______ _______ _____ _____    ______ ____
ROOT
ATOM      1  C   LIG    1        1.447   0.371  -0.360  0.00  0.00    +0.115 C 
ENDROOT
BRANCH   1   2
ATOM      2  N   LIG    1        2.119  -0.922  -0.281  0.00  0.00    -0.312 NA
ATOM      3  H   LIG    1        2.486  -1.063   0.649  0.00  0.00    +0.122 HD
BRANCH   2   4
ATOM      4  C   LIG    1        3.194  -1.013  -1.259  0.00  0.00    +0.099 C 
BRANCH   4   5
ATOM      5  C   LIG    1        3.880  -2.386  -1.140  0.00  0.00    +0.121 C 
BRANCH   5   6
ATOM      6  N   LIG    1        5.026  -2.529  -2.038  0.00  0.00    -0.298 N 
ATOM      7  H   LIG    1        5.937  -2.437  -1.612  0.00  0.00    +0.150 HD
ATOM      8  C   LIG    1        4.961  -2.771  -3.364  0.00  0.00    +0.302 C 
ATOM      9  N   LIG    1        6.168  -2.858  -3.990  0.00  0.00    -0.281 N 
ATOM     10  C   LIG    1        6.207  -3.069  -5.450  0.00  0.00    +0.137 C 
ATOM     11  C   LIG    1        6.236  -4.599  -5.687  0.00  0.00    +0.179 C 
ATOM     12  O   LIG    1        7.348  -5.183  -5.007  0.00  0.00    -0.377 OA
ATOM     13  C   LIG    1        7.348  -4.947  -3.598  0.00  0.00    +0.179 C 
ATOM     14  C   LIG    1        7.355  -3.426  -3.317  0.00  0.00    +0.137 C 
ATOM     15  O   LIG    1        3.885  -2.780  -3.968  0.00  0.00    -0.253 OA
ENDBRANCH   5   6
ENDBRANCH   4   5
ENDBRANCH   2   4
ENDBRANCH   1   2
BRANCH   1  16
ATOM     16  C   LIG    1        0.314   0.480   0.686  0.00  0.00    +0.166 C 
BRANCH  16  17
ATOM     17  O   LIG    1       -0.727  -0.440   0.409  0.00  0.00    -0.387 OA
ATOM     18  H   LIG    1       -1.089  -0.236  -0.457  0.00  0.00    +0.210 HD
ENDBRANCH  16  17
BRANCH  16  19
ATOM     19  C   LIG    1       -0.283   1.899   0.768  0.00  0.00    +0.261 C 
BRANCH  19  20
ATOM     20  O   LIG    1       -0.785   2.299  -0.507  0.00  0.00    -0.489 OA
BRANCH  20  21
ATOM     21  C   LIG    1       -1.348   3.552  -0.654  0.00  0.00    +0.121 A 
ATOM     22  C   LIG    1       -1.487   4.485   0.388  0.00  0.00    +0.049 A 
ATOM     23  C   LIG    1       -2.068   5.726   0.144  0.00  0.00    +0.049 A 
ATOM     24  C   LIG    1       -2.514   6.043  -1.138  0.00  0.00    +0.117 A 
ATOM     25  C   LIG    1       -2.381   5.125  -2.178  0.00  0.00    +0.049 A 
ATOM     26  C   LIG    1       -1.800   3.884  -1.932  0.00  0.00    +0.049 A 
BRANCH  24  27
ATOM     27  O   LIG    1       -3.086   7.263  -1.378  0.00  0.00    -0.507 OA
ATOM     28  H   LIG    1       -3.134   7.816  -0.595  0.00  0.00    +0.292 HD
ENDBRANCH  24  27
ENDBRANCH  20  21
ENDBRANCH  19  20
ENDBRANCH  16  19
ENDBRANCH   1  16
TORSDOF 10
