REMARK  Name = DB13514
REMARK                            x       y       z     vdW  Elec       q    Type
REMARK                         _______ _______ _______ _____ _____    ______ ____
ROOT
ATOM      1  C   LIG    1        1.986   0.763   1.224  0.00  0.00    -0.033 A 
ATOM      2  C   LIG    1        2.787   0.072   2.143  0.00  0.00    +0.012 A 
ATOM      3  C   LIG    1        3.277   0.692   3.298  0.00  0.00    -0.000 A 
ATOM      4  C   LIG    1        2.940   2.037   3.523  0.00  0.00    +0.134 A 
ATOM      5  O   LIG    1        3.366   2.740   4.630  0.00  0.00    -0.437 OA
ATOM      6  C   LIG    1        4.164   2.136   5.577  0.00  0.00    +0.224 A 
ATOM      7  N   LIG    1        4.501   2.957   6.605  0.00  0.00    -0.221 NA
ATOM      8  C   LIG    1        5.285   2.446   7.586  0.00  0.00    +0.114 A 
ATOM      9  C   LIG    1        5.750   1.130   7.576  0.00  0.00    +0.020 A 
ATOM     10  C   LIG    1        5.389   0.306   6.508  0.00  0.00    +0.010 A 
ATOM     11  C   LIG    1        4.580   0.798   5.477  0.00  0.00    +0.019 A 
ATOM     12  C   LIG    1        2.143   2.739   2.620  0.00  0.00    +0.047 A 
ATOM     13  C   LIG    1        4.156  -0.058   4.292  0.00  0.00    +0.079 C 
ATOM     14  C   LIG    1        1.668   2.104   1.476  0.00  0.00    +0.008 A 
ENDROOT
BRANCH   1  16
ATOM     15  C   LIG    1       -0.087  -0.058  -0.028  0.00  0.00    +0.024 C 
ATOM     16  C   LIG    1        1.461   0.046  -0.029  0.00  0.00    +0.124 C 
BRANCH  16  17
ATOM     17  C   LIG    1        2.063   0.689  -1.317  0.00  0.00    +0.312 C 
ATOM     18  O   LIG    1        3.294   0.539  -1.502  0.00  0.00    -0.250 OA
BRANCH  17  19
ATOM     19  O   LIG    1        1.316   1.308  -2.110  0.00  0.00    -0.480 OA
ATOM     20  H   LIG    1        0.401   1.391  -1.924  0.00  0.00    +0.295 HD
ENDBRANCH  17  19
ENDBRANCH  16  17
ENDBRANCH   1  16
TORSDOF 3
