REMARK  Name = DB13286
REMARK                            x       y       z     vdW  Elec       q    Type
REMARK                         _______ _______ _______ _____ _____    ______ ____
ROOT
ATOM      1  C   LIG    1        1.687   1.449  -1.206  0.00  0.00    +0.250 C 
ATOM      2  O   LIG    1        1.792   2.593  -1.659  0.00  0.00    -0.273 OA
ATOM      3  N   LIG    1        1.257   0.407  -1.986  0.00  0.00    -0.190 N 
ENDROOT
BRANCH   3   4
ATOM      4  C   LIG    1        0.974   0.502  -3.372  0.00  0.00    +0.056 A 
ATOM      5  C   LIG    1        0.093   1.482  -3.854  0.00  0.00    +0.025 A 
ATOM      6  C   LIG    1       -0.192   1.559  -5.214  0.00  0.00    +0.002 A 
ATOM      7  C   LIG    1        0.399   0.657  -6.096  0.00  0.00    +0.000 A 
ATOM      8  C   LIG    1        1.273  -0.323  -5.630  0.00  0.00    +0.002 A 
ATOM      9  C   LIG    1        1.559  -0.402  -4.270  0.00  0.00    +0.025 A 
ENDBRANCH   3   4
BRANCH   3  10
ATOM     10  N   LIG    1        1.150  -0.893  -1.428  0.00  0.00    -0.257 N 
ATOM     11  H   LIG    1        1.894  -1.465  -1.801  0.00  0.00    +0.171 HD
BRANCH  10  12
ATOM     12  C   LIG    1       -0.086  -1.550  -1.298  0.00  0.00    +0.045 A 
ATOM     13  C   LIG    1       -0.077  -2.938  -1.138  0.00  0.00    +0.024 A 
ATOM     14  C   LIG    1       -1.271  -3.639  -0.998  0.00  0.00    +0.002 A 
ATOM     15  C   LIG    1       -2.481  -2.951  -1.016  0.00  0.00    +0.000 A 
ATOM     16  C   LIG    1       -2.507  -1.568  -1.173  0.00  0.00    +0.002 A 
ATOM     17  C   LIG    1       -1.311  -0.869  -1.314  0.00  0.00    +0.024 A 
ENDBRANCH  10  12
ENDBRANCH   3  10
BRANCH   1  18
ATOM     18  C   LIG    1        2.068   1.264   0.294  0.00  0.00    +0.185 C 
BRANCH  18  19
ATOM     19  C   LIG    1        3.184   0.217   0.555  0.00  0.00    +0.317 C 
ATOM     20  O   LIG    1        4.234   0.196  -0.086  0.00  0.00    -0.250 OA
BRANCH  19  21
ATOM     21  O   LIG    1        2.879  -0.684   1.536  0.00  0.00    -0.480 OA
ATOM     22  H   LIG    1        3.580  -1.325   1.673  0.00  0.00    +0.295 HD
ENDBRANCH  19  21
ENDBRANCH  18  19
BRANCH  18  23
ATOM     23  C   LIG    1        0.831   1.187   1.247  0.00  0.00    +0.024 C 
BRANCH  23  24
ATOM     24  C   LIG    1       -0.068   2.447   1.305  0.00  0.00    +0.001 C 
BRANCH  24  26
ATOM     25  C   LIG    1       -2.110   3.724   0.431  0.00  0.00    +0.004 C 
ATOM     26  C   LIG    1       -1.229   2.476   0.292  0.00  0.00    -0.003 C 
ENDBRANCH  24  26
ENDBRANCH  23  24
ENDBRANCH  18  23
ENDBRANCH   1  18
TORSDOF 9
