REMARK  Name = DB13035
REMARK                            x       y       z     vdW  Elec       q    Type
REMARK                         _______ _______ _______ _____ _____    ______ ____
ROOT
ATOM      1  C   LIG    1        4.461  -0.014   2.470  0.00  0.00    -0.015 A 
ATOM      2  C   LIG    1        4.836   1.195   3.064  0.00  0.00    +0.020 A 
ATOM      3  C   LIG    1        5.600   1.174   4.243  0.00  0.00    +0.031 A 
ATOM      4  C   LIG    1        6.162   2.152   5.132  0.00  0.00    +0.135 A 
ATOM      5  N   LIG    1        6.805   1.558   6.111  0.00  0.00    -0.170 NA
ATOM      6  N   LIG    1        6.701   0.231   5.924  0.00  0.00    -0.276 N 
ATOM      7  H   LIG    1        7.131  -0.411   6.575  0.00  0.00    +0.189 HD
ATOM      8  C   LIG    1        5.973  -0.075   4.795  0.00  0.00    +0.066 A 
ATOM      9  C   LIG    1        5.609  -1.292   4.212  0.00  0.00    +0.028 A 
ATOM     10  C   LIG    1        4.849  -1.227   3.043  0.00  0.00    +0.010 A 
ENDROOT
BRANCH   4  11
ATOM     11  C   LIG    1        6.080   3.612   5.038  0.00  0.00    +0.160 A 
ATOM     12  N   LIG    1        5.459   4.254   4.077  0.00  0.00    -0.223 NA
ATOM     13  C   LIG    1        5.628   5.583   4.367  0.00  0.00    +0.125 A 
ATOM     14  C   LIG    1        5.173   6.714   3.672  0.00  0.00    +0.153 A 
ATOM     15  F   LIG    1        4.450   6.596   2.534  0.00  0.00    -0.203 F 
ATOM     16  C   LIG    1        5.485   7.974   4.184  0.00  0.00    +0.079 A 
ATOM     17  C   LIG    1        6.229   8.118   5.357  0.00  0.00    +0.128 A 
ATOM     18  F   LIG    1        6.506   9.360   5.812  0.00  0.00    -0.205 F 
ATOM     19  C   LIG    1        6.697   7.012   6.073  0.00  0.00    +0.066 A 
ATOM     20  C   LIG    1        6.382   5.752   5.556  0.00  0.00    +0.072 A 
ATOM     21  N   LIG    1        6.654   4.465   5.957  0.00  0.00    -0.336 N 
ATOM     22  H   LIG    1        7.172   4.146   6.763  0.00  0.00    +0.167 HD
ENDBRANCH   4  11
BRANCH   1  26
ATOM     23  C   LIG    1        1.546   0.016   0.009  0.00  0.00    -0.043 A 
ATOM     24  C   LIG    1        2.236   0.010   1.240  0.00  0.00    -0.039 A 
ATOM     25  C   LIG    1        1.458   0.029   2.557  0.00  0.00    +0.044 C 
ATOM     26  C   LIG    1        3.647  -0.004   1.232  0.00  0.00    +0.003 A 
ATOM     27  C   LIG    1        4.297  -0.014  -0.007  0.00  0.00    +0.119 A 
ATOM     28  N   LIG    1        3.648  -0.012  -1.195  0.00  0.00    -0.262 NA
ATOM     29  C   LIG    1        2.295  -0.001  -1.172  0.00  0.00    +0.112 A 
BRANCH  23  30
ATOM     30  C   LIG    1        0.025   0.008  -0.082  0.00  0.00    -0.045 C 
BRANCH  30  31
ATOM     31  N   LIG    1       -0.586   1.417  -0.025  0.00  0.00    +0.382 N 
ATOM     32  H   LIG    1       -0.291   1.860   0.834  0.00  0.00    -0.085 HD
ATOM     33  H   LIG    1       -0.218   1.960  -0.794  0.00  0.00    -0.085 HD
BRANCH  31  35
ATOM     34  C   LIG    1       -2.623   2.879  -0.018  0.00  0.00    -0.017 C 
ATOM     35  C   LIG    1       -2.121   1.431  -0.090  0.00  0.00    -0.086 C 
ENDBRANCH  31  35
ENDBRANCH  30  31
ENDBRANCH  23  30
ENDBRANCH   1  26
TORSDOF 5
