REMARK  Name = DB13004
REMARK                            x       y       z     vdW  Elec       q    Type
REMARK                         _______ _______ _______ _____ _____    ______ ____
ROOT
ATOM      1  C   LIG    1        1.361  -0.227   0.183  0.00  0.00    +0.131 C 
ATOM      2  C   LIG    1        1.847   1.172  -0.343  0.00  0.00    +0.055 C 
ATOM      3  C   LIG    1        3.322   1.277  -0.746  0.00  0.00    +0.028 C 
ATOM      4  C   LIG    1        3.621   2.777  -0.780  0.00  0.00    +0.112 C 
ATOM      5  N   LIG    1        2.617   3.362   0.110  0.00  0.00    -0.264 N 
ATOM      6  C   LIG    1        2.538   4.741   0.333  0.00  0.00    +0.403 C 
ATOM      7  O   LIG    1        3.307   5.578  -0.147  0.00  0.00    -0.226 OA
ATOM      8  C   LIG    1        1.689   2.356   0.648  0.00  0.00    +0.086 C 
ATOM      9  C   LIG    1        1.986   1.994   2.132  0.00  0.00    +0.023 C 
ATOM     10  C   LIG    1        1.405   0.652   2.600  0.00  0.00    +0.006 C 
ATOM     11  C   LIG    1        1.799  -0.491   1.647  0.00  0.00    +0.048 C 
ENDROOT
BRANCH   1  13
ATOM     12  C   LIG    1       -1.336  -0.350   0.011  0.00  0.00    -0.063 C 
ATOM     13  C   LIG    1       -0.117  -0.308   0.082  0.00  0.00    -0.062 C 
BRANCH  12  17
ATOM     14  C   LIG    1       -5.762   1.519   1.407  0.00  0.00    +0.044 C 
ATOM     15  C   LIG    1       -4.940   0.517   0.617  0.00  0.00    -0.049 A 
ATOM     16  C   LIG    1       -3.543   0.541   0.679  0.00  0.00    +0.020 A 
ATOM     17  C   LIG    1       -2.789  -0.378  -0.058  0.00  0.00    +0.025 A 
ATOM     18  C   LIG    1       -3.436  -1.321  -0.861  0.00  0.00    +0.017 A 
ATOM     19  C   LIG    1       -4.829  -1.345  -0.927  0.00  0.00    +0.001 A 
ATOM     20  C   LIG    1       -5.579  -0.427  -0.191  0.00  0.00    +0.003 A 
ENDBRANCH  12  17
ENDBRANCH   1  13
BRANCH   1  21
ATOM     21  O   LIG    1        1.883  -1.244  -0.652  0.00  0.00    -0.376 OA
ATOM     22  H   LIG    1        2.841  -1.216  -0.602  0.00  0.00    +0.211 HD
ENDBRANCH   1  21
BRANCH   6  23
ATOM     23  O   LIG    1        1.501   5.050   1.152  0.00  0.00    -0.454 OA
ATOM     24  C   LIG    1        1.239   6.397   1.518  0.00  0.00    +0.282 C 
ENDBRANCH   6  23
TORSDOF 4
