REMARK  Name = DB13069
REMARK                            x       y       z     vdW  Elec       q    Type
REMARK                         _______ _______ _______ _____ _____    ______ ____
ROOT
ATOM      1  C   LIG    1        0.148  -0.011  -0.127  0.00  0.00    +0.146 C 
ENDROOT
BRANCH   1   2
ATOM      2  C   LIG    1       -0.392   1.416  -0.065  0.00  0.00    +0.027 A 
ATOM      3  C   LIG    1       -1.179   1.825   1.020  0.00  0.00    +0.121 A 
ATOM      4  N   LIG    1       -1.712   3.070   1.118  0.00  0.00    -0.240 NA
ATOM      5  C   LIG    1       -1.450   3.910   0.084  0.00  0.00    +0.128 A 
ATOM      6  C   LIG    1       -2.031   5.309   0.162  0.00  0.00    +0.088 C 
ATOM      7  N   LIG    1       -0.718   3.616  -1.022  0.00  0.00    -0.218 NA
ATOM      8  C   LIG    1       -0.200   2.363  -1.090  0.00  0.00    +0.124 A 
BRANCH   8   9
ATOM      9  N   LIG    1        0.526   2.061  -2.243  0.00  0.00    -0.343 N 
ATOM     10  H   LIG    1        0.632   2.767  -2.957  0.00  0.00    +0.144 HD
ATOM     11  H   LIG    1        0.928   1.141  -2.353  0.00  0.00    +0.144 HD
ENDBRANCH   8   9
ENDBRANCH   1   2
BRANCH   1  12
ATOM     12  N   LIG    1        1.608  -0.072  -0.040  0.00  0.00    -0.294 N 
ATOM     13  H   LIG    1        2.011   0.252   0.828  0.00  0.00    +0.151 HD
ATOM     14  C   LIG    1        2.438  -0.564  -0.983  0.00  0.00    +0.324 C 
ATOM     15  O   LIG    1        2.035  -1.071  -2.033  0.00  0.00    -0.251 OA
ATOM     16  N   LIG    1        3.744  -0.561  -0.625  0.00  0.00    -0.140 N 
BRANCH  16  17
ATOM     17  N   LIG    1        4.287   0.655  -0.245  0.00  0.00    +0.053 NA
ATOM     18  O   LIG    1        5.472   0.648   0.023  0.00  0.00    -0.126 OA
ENDBRANCH  16  17
BRANCH  16  19
ATOM     19  C   LIG    1        4.556  -1.787  -0.789  0.00  0.00    +0.155 C 
BRANCH  19  20
ATOM     20  C   LIG    1        4.857  -2.476   0.552  0.00  0.00    +0.130 C 
ATOM     21 CL   LIG    1        5.843  -3.938   0.292  0.00  0.00    -0.124 Cl
ENDBRANCH  19  20
ENDBRANCH  16  19
ENDBRANCH   1  12
TORSDOF 6
