REMARK  Name = DB13063
REMARK                            x       y       z     vdW  Elec       q    Type
REMARK                         _______ _______ _______ _____ _____    ______ ____
ROOT
ATOM      1  C   LIG    1       -0.104   0.132   0.197  0.00  0.00    +0.039 C 
ATOM      2  C   LIG    1        1.412   0.057   0.050  0.00  0.00    -0.077 C 
ATOM      3  C   LIG    1        2.089   1.378  -0.270  0.00  0.00    +0.031 C 
ATOM      4  C   LIG    1        1.835   1.842  -1.730  0.00  0.00    +0.016 C 
ATOM      5  C   LIG    1        1.793   0.720  -2.822  0.00  0.00    +0.069 C 
ATOM      6  C   LIG    1        1.723   1.312  -4.206  0.00  0.00    +0.036 C 
ATOM      7  C   LIG    1        3.052   1.246  -4.785  0.00  0.00    +0.335 C 
ATOM      8  O   LIG    1        3.829   0.544  -3.938  0.00  0.00    -0.455 OA
ATOM      9  O   LIG    1        3.439   1.722  -5.851  0.00  0.00    -0.245 OA
ATOM     10  C   LIG    1        0.661   1.835  -4.845  0.00  0.00    +0.020 C 
ATOM     11  C   LIG    1        3.082  -0.119  -2.921  0.00  0.00    +0.216 C 
ATOM     12  C   LIG    1        3.035  -1.626  -3.336  0.00  0.00    +0.192 C 
ATOM     13  O   LIG    1        1.891  -2.118  -3.988  0.00  0.00    -0.361 OA
ATOM     14  C   LIG    1        2.179  -2.747  -2.761  0.00  0.00    +0.097 C 
ATOM     15  C   LIG    1        2.791  -4.158  -2.840  0.00  0.00    +0.044 C 
ATOM     16  C   LIG    1        1.070  -2.633  -1.677  0.00  0.00    +0.041 C 
ATOM     17  C   LIG    1        1.557  -2.467  -0.220  0.00  0.00    +0.030 C 
ATOM     18  C   LIG    1        2.127  -1.085  -0.020  0.00  0.00    -0.028 C 
ENDROOT
TORSDOF 0
