REMARK  Name = DB13071
REMARK                            x       y       z     vdW  Elec       q    Type
REMARK                         _______ _______ _______ _____ _____    ______ ____
ROOT
ATOM      1  C   LIG    1       -0.962   1.237   0.002  0.00  0.00    +0.108 C 
ATOM      2  N   LIG    1       -0.150  -0.009   0.002  0.00  0.00    -0.270 NA
ENDROOT
BRANCH   2   3
ATOM      3  C   LIG    1       -0.715  -1.254   0.001  0.00  0.00    +0.169 C 
BRANCH   3   4
ATOM      4  N   LIG    1       -2.031  -1.468  -0.000  0.00  0.00    -0.297 NA
ATOM      5  H   LIG    1       -2.666  -0.682  -0.002  0.00  0.00    +0.121 HD
ATOM      6  H   LIG    1       -2.390  -2.412   0.002  0.00  0.00    +0.121 HD
ENDBRANCH   3   4
BRANCH   3   7
ATOM      7  N   LIG    1        0.001  -2.381   0.001  0.00  0.00    -0.297 NA
ATOM      8  H   LIG    1       -0.463  -3.277   0.002  0.00  0.00    +0.121 HD
ATOM      9  H   LIG    1        1.010  -2.330  -0.002  0.00  0.00    +0.121 HD
ENDBRANCH   3   7
ENDBRANCH   2   3
BRANCH   2  10
ATOM     10  C   LIG    1        1.335   0.150   0.000  0.00  0.00    +0.116 C 
BRANCH  10  11
ATOM     11  C   LIG    1        1.906   1.581  -0.000  0.00  0.00    +0.188 C 
BRANCH  11  12
ATOM     12  O   LIG    1        3.315   1.499  -0.010  0.00  0.00    -0.286 OA
BRANCH  12  13
ATOM     13  P   LIG    1        4.295   2.958  -0.010  0.00  0.00    +0.472 P 
ATOM     14  O   LIG    1        5.757   2.475  -0.019  0.00  0.00    -0.228 OA
BRANCH  13  15
ATOM     15  O   LIG    1        3.919   3.713   1.278  0.00  0.00    -0.303 OA
ATOM     16  H   LIG    1        4.186   3.189   2.050  0.00  0.00    +0.222 HD
ENDBRANCH  13  15
BRANCH  13  17
ATOM     17  O   LIG    1        3.906   3.722  -1.290  0.00  0.00    -0.303 OA
ATOM     18  H   LIG    1        4.165   3.203  -2.067  0.00  0.00    +0.222 HD
ENDBRANCH  13  17
ENDBRANCH  12  13
ENDBRANCH  11  12
ENDBRANCH  10  11
ENDBRANCH   2  10
TORSDOF 9
