REMARK  Name = DB13930
REMARK                            x       y       z     vdW  Elec       q    Type
REMARK                         _______ _______ _______ _____ _____    ______ ____
ROOT
ATOM      1  C   LIG    1        0.028  -0.141   0.145  0.00  0.00    +0.002 A 
ATOM      2  C   LIG    1       -0.779  -1.137   0.685  0.00  0.00    +0.091 A 
ATOM      3  N   LIG    1       -2.069  -0.680   0.753  0.00  0.00    -0.357 N 
ATOM      4  H   LIG    1       -2.853  -1.208   1.108  0.00  0.00    +0.165 HD
ATOM      5  CA  LIG    1       -2.141   0.604   0.275  0.00  0.00    +0.102 A 
ATOM      6  C   LIG    1       -0.837   0.943  -0.096  0.00  0.00    +0.040 A 
ENDROOT
BRANCH   1  13
ATOM      7 CL   LIG    1        1.365  -2.773  -1.049  0.00  0.00    -0.081 Cl
ATOM      8  C   LIG    1        2.178  -1.310  -0.610  0.00  0.00    +0.067 A 
ATOM      9  C   LIG    1        3.560  -1.233  -0.788  0.00  0.00    +0.133 A 
ATOM     10  N   LIG    1        4.283  -0.124  -0.502  0.00  0.00    -0.239 NA
ATOM     11  C   LIG    1        3.632   0.969  -0.021  0.00  0.00    +0.120 A 
ATOM     12  C   LIG    1        2.249   0.967   0.183  0.00  0.00    +0.053 A 
ATOM     13  C   LIG    1        1.501  -0.184  -0.105  0.00  0.00    +0.007 A 
BRANCH  11  14
ATOM     14  N   LIG    1        4.338   2.146   0.290  0.00  0.00    -0.327 N 
ATOM     15  H   LIG    1        3.817   2.907   0.701  0.00  0.00    +0.148 HD
BRANCH  14  16
ATOM     16  C   LIG    1        5.792   2.312   0.205  0.00  0.00    +0.066 C 
ATOM     17  C   LIG    1        6.563   1.423   1.200  0.00  0.00    +0.027 C 
ATOM     18  C   LIG    1        6.344   2.198  -1.230  0.00  0.00    +0.027 C 
ENDBRANCH  14  16
ENDBRANCH  11  14
ENDBRANCH   1  13
BRANCH   5  19
ATOM     19  C   LIG    1       -3.362   1.365   0.223  0.00  0.00    +0.261 C 
ATOM     20  N   LIG    1       -3.225   2.602  -0.297  0.00  0.00    -0.301 N 
ATOM     21  H   LIG    1       -2.373   2.795  -0.802  0.00  0.00    +0.150 HD
ATOM     22  O   LIG    1       -4.425   0.907   0.646  0.00  0.00    -0.269 OA
BRANCH  20  23
ATOM     23  CA  LIG    1       -4.296   3.595  -0.458  0.00  0.00    +0.129 C 
BRANCH  23  24
ATOM     24  C   LIG    1       -5.042   3.960   0.835  0.00  0.00    -0.024 A 
ATOM     25  C   LIG    1       -4.343   4.190   2.028  0.00  0.00    +0.005 A 
ATOM     26  C   LIG    1       -5.032   4.503   3.200  0.00  0.00    +0.002 A 
ATOM     27  C   LIG    1       -6.424   4.585   3.191  0.00  0.00    +0.020 A 
ATOM     28  C   LIG    1       -7.128   4.355   2.009  0.00  0.00    +0.041 A 
ATOM     29 CL   LIG    1       -8.851   4.452   1.998  0.00  0.00    -0.084 Cl
ATOM     30  C   LIG    1       -6.439   4.043   0.836  0.00  0.00    +0.025 A 
ENDBRANCH  23  24
BRANCH  23  31
ATOM     31  C   LIG    1       -3.756   4.849  -1.183  0.00  0.00    +0.182 C 
BRANCH  31  32
ATOM     32  O   LIG    1       -4.800   5.700  -1.616  0.00  0.00    -0.393 OA
ATOM     33  H   LIG    1       -4.412   6.464  -2.050  0.00  0.00    +0.209 HD
ENDBRANCH  31  32
ENDBRANCH  23  31
ENDBRANCH  20  23
ENDBRANCH   5  19
TORSDOF 8
