REMARK  Name = DB13967
REMARK                            x       y       z     vdW  Elec       q    Type
REMARK                         _______ _______ _______ _____ _____    ______ ____
ROOT
ATOM      1  C   LIG    1        1.564   0.113  -0.059  0.00  0.00    -0.002 C 
ATOM      2  C   LIG    1        2.272  -0.661   0.816  0.00  0.00    -0.017 C 
ATOM      3  C   LIG    1        3.727  -0.807   0.805  0.00  0.00    +0.010 C 
ATOM      4  C   LIG    1        4.406  -1.575   1.692  0.00  0.00    +0.026 C 
ATOM      5  C   LIG    1        3.759  -2.307   2.712  0.00  0.00    +0.038 C 
ATOM      6  N   LIG    1        4.454  -3.057   3.610  0.00  0.00    -0.371 N 
ATOM      7  C   LIG    1        2.349  -2.220   2.747  0.00  0.00    +0.026 C 
ATOM      8  C   LIG    1        1.647  -1.461   1.870  0.00  0.00    +0.010 C 
ENDROOT
BRANCH   1  10
ATOM      9  C   LIG    1       -0.584  -1.002  -0.555  0.00  0.00    +0.058 A 
ATOM     10  C   LIG    1        0.074   0.127  -0.051  0.00  0.00    +0.014 A 
ATOM     11  C   LIG    1       -0.697   1.215   0.409  0.00  0.00    +0.127 A 
ATOM     12  C   LIG    1       -2.094   1.146   0.348  0.00  0.00    +0.063 A 
ATOM     13  C   LIG    1       -2.740   0.010  -0.149  0.00  0.00    +0.160 A 
ATOM     14  C   LIG    1       -1.974  -1.067  -0.608  0.00  0.00    +0.145 A 
BRANCH  11  15
ATOM     15  S   LIG    1        0.036   2.709   1.106  0.00  0.00    +0.110 S 
ATOM     16  O   LIG    1        1.247   2.345   1.850  0.00  0.00    -0.142 OA
ATOM     17  O   LIG    1       -1.023   3.517   1.722  0.00  0.00    -0.142 OA
BRANCH  15  18
ATOM     18  O   LIG    1        0.481   3.439  -0.317  0.00  0.00    -0.250 OA
ATOM     19  H   LIG    1       -0.296   3.825  -0.766  0.00  0.00    +0.245 HD
ENDBRANCH  15  18
ENDBRANCH  11  15
BRANCH  13  20
ATOM     20  S   LIG    1       -4.536  -0.069  -0.227  0.00  0.00    +0.113 S 
ATOM     21  O   LIG    1       -4.969  -1.284   0.472  0.00  0.00    -0.142 OA
ATOM     22  O   LIG    1       -4.928   0.211  -1.613  0.00  0.00    -0.142 OA
BRANCH  20  23
ATOM     23  O   LIG    1       -4.937   1.243   0.711  0.00  0.00    -0.250 OA
ATOM     24  H   LIG    1       -4.846   1.030   1.660  0.00  0.00    +0.245 HD
ENDBRANCH  20  23
ENDBRANCH  13  20
BRANCH  14  25
ATOM     25  O   LIG    1       -2.562  -2.193  -1.123  0.00  0.00    -0.505 OA
ATOM     26  H   LIG    1       -1.928  -2.860  -1.398  0.00  0.00    +0.292 HD
ENDBRANCH  14  25
ENDBRANCH   1  10
BRANCH   1  27
ATOM     27  C   LIG    1        2.181   0.999  -1.090  0.00  0.00    -0.017 A 
ATOM     28  C   LIG    1        1.709   0.985  -2.407  0.00  0.00    +0.010 A 
ATOM     29  C   LIG    1        2.264   1.822  -3.370  0.00  0.00    +0.024 A 
ATOM     30  C   LIG    1        3.308   2.702  -3.045  0.00  0.00    +0.030 A 
ATOM     31  C   LIG    1        3.773   2.716  -1.722  0.00  0.00    +0.024 A 
ATOM     32  C   LIG    1        3.217   1.880  -0.760  0.00  0.00    +0.010 A 
BRANCH  30  33
ATOM     33  N   LIG    1        3.892   3.567  -4.011  0.00  0.00    -0.330 N 
BRANCH  33  34
ATOM     34  C   LIG    1        3.189   3.863  -5.267  0.00  0.00    +0.102 C 
ATOM     35  C   LIG    1        1.838   4.580  -5.085  0.00  0.00    +0.024 C 
ENDBRANCH  33  34
BRANCH  33  36
ATOM     36  C   LIG    1        5.359   3.554  -4.088  0.00  0.00    +0.102 C 
ATOM     37  C   LIG    1        5.935   2.285  -4.738  0.00  0.00    +0.024 C 
ENDBRANCH  33  36
ENDBRANCH  30  33
ENDBRANCH   1  27
BRANCH   6  38
ATOM     38  C   LIG    1        3.779  -3.845   4.706  0.00  0.00    +0.113 C 
ATOM     39  C   LIG    1        3.225  -5.184   4.187  0.00  0.00    +0.027 C 
ENDBRANCH   6  38
BRANCH   6  40
ATOM     40  C   LIG    1        5.959  -3.158   3.592  0.00  0.00    +0.113 C 
ATOM     41  C   LIG    1        6.449  -4.180   2.551  0.00  0.00    +0.027 C 
ENDBRANCH   6  40
TORSDOF 12
