REMARK  Name = DB13992
REMARK                            x       y       z     vdW  Elec       q    Type
REMARK                         _______ _______ _______ _____ _____    ______ ____
ROOT
ATOM      1  C   LIG    1        1.398   0.065   0.192  0.00  0.00    +0.171 C 
ENDROOT
BRANCH   1   3
ATOM      2  N   LIG    1       -0.461  -1.582  -0.169  0.00  0.00    -0.301 N 
ATOM      3  C   LIG    1       -0.100  -0.291   0.068  0.00  0.00    +0.226 C 
ATOM      4  O   LIG    1       -0.936   0.608   0.190  0.00  0.00    -0.275 OA
BRANCH   2   6
ATOM      5  C   LIG    1       -2.453  -1.810  -1.678  0.00  0.00    +0.024 C 
ATOM      6  C   LIG    1       -1.875  -1.979  -0.264  0.00  0.00    +0.104 C 
ENDBRANCH   2   6
BRANCH   2   7
ATOM      7  C   LIG    1        0.492  -2.683  -0.371  0.00  0.00    +0.104 C 
ATOM      8  C   LIG    1        0.817  -3.445   0.924  0.00  0.00    +0.024 C 
ENDBRANCH   2   7
ENDBRANCH   1   3
BRANCH   1   9
ATOM      9  S   LIG    1        1.764   1.604   1.104  0.00  0.00    -0.095 S 
BRANCH   9  10
ATOM     10  C   LIG    1        1.258   1.443   2.796  0.00  0.00    +0.120 A 
ATOM     11  N   LIG    1        1.337   2.566   3.559  0.00  0.00    -0.142 NA
ATOM     12  N   LIG    1        0.981   2.529   4.855  0.00  0.00    -0.137 NA
ATOM     13  C   LIG    1        0.546   1.368   5.411  0.00  0.00    +0.152 A 
ATOM     14 CL   LIG    1        0.101   1.357   7.078  0.00  0.00    -0.060 Cl
ATOM     15  C   LIG    1        0.455   0.189   4.670  0.00  0.00    +0.044 A 
ATOM     16  C   LIG    1        0.822   0.225   3.326  0.00  0.00    +0.039 A 
ENDBRANCH   9  10
ENDBRANCH   1   9
TORSDOF 5
