REMARK  Name = DB13231
REMARK                            x       y       z     vdW  Elec       q    Type
REMARK                         _______ _______ _______ _____ _____    ______ ____
ROOT
ATOM      1  C   LIG    1        0.007  -0.002   0.039  0.00  0.00    +0.049 C 
ATOM      2  C   LIG    1        1.551   0.035   0.065  0.00  0.00    +0.219 C 
ENDROOT
BRANCH   2   3
ATOM      3  O   LIG    1        2.024  -1.297   0.224  0.00  0.00    -0.381 OA
ATOM      4  H   LIG    1        2.531  -1.525  -0.561  0.00  0.00    +0.210 HD
ENDBRANCH   2   3
BRANCH   2   5
ATOM      5  C   LIG    1        2.118   0.716  -1.218  0.00  0.00    +0.333 C 
ATOM      6  O   LIG    1        1.902   1.944  -1.343  0.00  0.00    -0.248 OA
BRANCH   5   7
ATOM      7  O   LIG    1        2.766   0.042  -2.055  0.00  0.00    -0.479 OA
ATOM      8  H   LIG    1        2.901  -0.875  -1.915  0.00  0.00    +0.295 HD
ENDBRANCH   5   7
ENDBRANCH   2   5
TORSDOF 3
