REMARK  Name = DB13615
REMARK                            x       y       z     vdW  Elec       q    Type
REMARK                         _______ _______ _______ _____ _____    ______ ____
ROOT
ATOM      1  N   LIG    1        6.885  -0.794   0.360  0.00  0.00    -0.312 N 
ATOM      2  H   LIG    1        6.018  -1.074   0.794  0.00  0.00    +0.149 HD
ATOM      3  C   LIG    1        7.890  -1.683   0.278  0.00  0.00    +0.233 C 
ATOM      4  O   LIG    1        8.991  -1.423  -0.209  0.00  0.00    -0.274 OA
ENDROOT
BRANCH   3   5
ATOM      5  C   LIG    1        7.618  -3.104   0.813  0.00  0.00    +0.156 C 
ATOM      6  C   LIG    1        8.281  -4.192  -0.055  0.00  0.00    +0.038 C 
BRANCH   5   7
ATOM      7  N   LIG    1        6.182  -3.368   0.920  0.00  0.00    -0.304 N 
ATOM      8  H   LIG    1        5.594  -2.792   0.334  0.00  0.00    +0.149 HD
ATOM      9  C   LIG    1        5.611  -4.296   1.701  0.00  0.00    +0.214 C 
ATOM     10  O   LIG    1        6.248  -5.049   2.438  0.00  0.00    -0.276 OA
BRANCH   9  11
ATOM     11  C   LIG    1        4.080  -4.374   1.639  0.00  0.00    +0.098 C 
BRANCH  11  12
ATOM     12  C   LIG    1        3.492  -5.802   1.604  0.00  0.00    +0.041 C 
BRANCH  12  13
ATOM     13  C   LIG    1        3.962  -6.763   0.472  0.00  0.00    +0.159 C 
BRANCH  13  14
ATOM     14  C   LIG    1        3.676  -6.230  -0.956  0.00  0.00    +0.231 C 
ATOM     15  N   LIG    1        4.465  -5.249  -1.405  0.00  0.00    -0.328 N 
ATOM     16  H   LIG    1        5.206  -4.881  -0.827  0.00  0.00    +0.145 HD
ATOM     17  H   LIG    1        4.324  -4.865  -2.328  0.00  0.00    +0.145 HD
ATOM     18  O   LIG    1        2.770  -6.699  -1.644  0.00  0.00    -0.274 OA
ENDBRANCH  13  14
BRANCH  13  19
ATOM     19  N   LIG    1        3.471  -8.130   0.698  0.00  0.00    -0.302 N 
ATOM     20  H   LIG    1        4.196  -8.823   0.813  0.00  0.00    +0.150 HD
ATOM     21  C   LIG    1        2.193  -8.521   0.857  0.00  0.00    +0.234 C 
ATOM     22  O   LIG    1        1.208  -7.789   0.751  0.00  0.00    -0.274 OA
BRANCH  21  23
ATOM     23  C   LIG    1        1.995  -9.989   1.269  0.00  0.00    +0.156 C 
ATOM     24  C   LIG    1        0.969 -10.694   0.367  0.00  0.00    +0.038 C 
BRANCH  23  25
ATOM     25  N   LIG    1        1.542 -10.062   2.658  0.00  0.00    -0.302 N 
ATOM     26  H   LIG    1        0.561 -10.261   2.789  0.00  0.00    +0.150 HD
ATOM     27  C   LIG    1        2.291  -9.737   3.727  0.00  0.00    +0.242 C 
ATOM     28  O   LIG    1        3.490  -9.464   3.655  0.00  0.00    -0.273 OA
BRANCH  27  29
ATOM     29  C   LIG    1        1.547  -9.610   5.071  0.00  0.00    +0.201 C 
ATOM     30  C   LIG    1        2.013 -10.685   6.068  0.00  0.00    +0.048 C 
BRANCH  29  31
ATOM     31  O   LIG    1        1.844  -8.348   5.683  0.00  0.00    -0.360 OA
BRANCH  31  32
ATOM     32  C   LIG    1        1.497  -7.104   5.040  0.00  0.00    +0.177 C 
BRANCH  32  33
ATOM     33  C   LIG    1       -0.057  -6.902   5.000  0.00  0.00    +0.176 C 
BRANCH  33  34
ATOM     34  O   LIG    1       -0.599  -7.679   3.941  0.00  0.00    -0.387 OA
ATOM     35  H   LIG    1       -0.276  -7.329   3.106  0.00  0.00    +0.210 HD
ENDBRANCH  33  34
BRANCH  33  36
ATOM     36  C   LIG    1       -0.551  -5.430   4.840  0.00  0.00    +0.171 C 
BRANCH  36  37
ATOM     37  O   LIG    1       -1.958  -5.387   5.021  0.00  0.00    -0.387 OA
ATOM     38  H   LIG    1       -2.257  -4.489   4.856  0.00  0.00    +0.210 HD
ENDBRANCH  36  37
BRANCH  36  39
ATOM     39  C   LIG    1       -0.201  -4.775   3.483  0.00  0.00    +0.189 C 
BRANCH  39  40
ATOM     40  O   LIG    1       -0.438  -3.380   3.514  0.00  0.00    -0.392 OA
ATOM     41  H   LIG    1        0.229  -2.967   4.067  0.00  0.00    +0.210 HD
ENDBRANCH  39  40
ENDBRANCH  36  39
ENDBRANCH  33  36
ENDBRANCH  32  33
BRANCH  32  42
ATOM     42  CA  LIG    1        2.291  -5.994   5.806  0.00  0.00    +0.167 C 
BRANCH  42  43
ATOM     43  N   LIG    1        1.887  -5.803   7.217  0.00  0.00    -0.304 N 
ATOM     44  H   LIG    1        1.257  -5.025   7.348  0.00  0.00    +0.149 HD
ATOM     45  C   LIG    1        2.109  -6.573   8.304  0.00  0.00    +0.211 C 
ATOM     46  C   LIG    1        1.467  -6.102   9.604  0.00  0.00    +0.109 C 
ATOM     47  O   LIG    1        2.778  -7.604   8.301  0.00  0.00    -0.276 OA
ENDBRANCH  42  43
BRANCH  42  48
ATOM     48  C   LIG    1        3.795  -6.198   5.709  0.00  0.00    +0.248 C 
ATOM     49  O   LIG    1        4.532  -5.403   5.126  0.00  0.00    -0.299 OA
ENDBRANCH  42  48
ENDBRANCH  32  42
ENDBRANCH  31  32
ENDBRANCH  29  31
ENDBRANCH  27  29
ENDBRANCH  23  25
ENDBRANCH  21  23
ENDBRANCH  13  19
ENDBRANCH  12  13
ENDBRANCH  11  12
ENDBRANCH   9  11
ENDBRANCH   5   7
ENDBRANCH   3   5
BRANCH   1  50
ATOM     50  C   LIG    1        6.907   0.529  -0.251  0.00  0.00    +0.133 C 
BRANCH  50  51
ATOM     51  C   LIG    1        6.523   0.544  -1.746  0.00  0.00    +0.191 C 
BRANCH  51  52
ATOM     52  O   LIG    1        5.144   0.297  -2.003  0.00  0.00    -0.285 OA
BRANCH  52  53
ATOM     53  P   LIG    1        4.541  -1.331  -1.977  0.00  0.00    +0.475 P 
ATOM     54  O   LIG    1        5.685  -2.300  -2.182  0.00  0.00    -0.227 OA
BRANCH  53  55
ATOM     55  O   LIG    1        3.278  -1.367  -2.808  0.00  0.00    -0.302 OA
ATOM     56  H   LIG    1        2.918  -2.268  -2.811  0.00  0.00    +0.222 HD
ENDBRANCH  53  55
BRANCH  53  57
ATOM     57  O   LIG    1        4.102  -1.372  -0.301  0.00  0.00    -0.283 OA
BRANCH  57  58
ATOM     58  C   LIG    1        2.963  -0.628   0.110  0.00  0.00    +0.220 C 
BRANCH  58  59
ATOM     59  C   LIG    1        1.808  -1.586   0.469  0.00  0.00    +0.240 C 
BRANCH  59  60
ATOM     60  C   LIG    1        0.559  -0.857   1.010  0.00  0.00    +0.279 C 
BRANCH  60  61
ATOM     61  O   LIG    1        0.063   0.077   0.058  0.00  0.00    -0.461 OA
BRANCH  61  62
ATOM     62  C   LIG    1       -1.070   0.766   0.296  0.00  0.00    +0.307 C 
ATOM     63  O   LIG    1       -1.759   0.706   1.317  0.00  0.00    -0.251 OA
BRANCH  62  64
ATOM     64  C   LIG    1       -1.455   1.679  -0.871  0.00  0.00    +0.120 C 
BRANCH  64  65
ATOM     65  C   LIG    1       -0.540   2.911  -1.034  0.00  0.00    +0.011 C 
BRANCH  65  66
ATOM     66  C   LIG    1       -0.629   3.927   0.123  0.00  0.00    +0.001 C 
BRANCH  66  67
ATOM     67  C   LIG    1        0.237   5.180  -0.109  0.00  0.00    +0.000 C 
BRANCH  67  68
ATOM     68  C   LIG    1        0.081   6.268   0.972  0.00  0.00    +0.000 C 
BRANCH  68  69
ATOM     69  C   LIG    1        0.591   5.856   2.366  0.00  0.00    +0.000 C 
BRANCH  69  70
ATOM     70  C   LIG    1        0.478   6.989   3.403  0.00  0.00    -0.000 C 
BRANCH  70  71
ATOM     71  C   LIG    1        0.982   6.576   4.797  0.00  0.00    -0.000 C 
BRANCH  71  72
ATOM     72  C   LIG    1        0.851   7.698   5.843  0.00  0.00    -0.000 C 
BRANCH  72  73
ATOM     73  C   LIG    1        1.360   7.280   7.233  0.00  0.00    -0.000 C 
BRANCH  73  74
ATOM     74  C   LIG    1        1.229   8.396   8.285  0.00  0.00    -0.000 C 
BRANCH  74  75
ATOM     75  C   LIG    1        1.751   7.976   9.671  0.00  0.00    -0.000 C 
BRANCH  75  76
ATOM     76  C   LIG    1        1.614   9.086  10.728  0.00  0.00    -0.000 C 
BRANCH  76  78
ATOM     77  C   LIG    1        2.012   9.772  13.164  0.00  0.00    +0.004 C 
ATOM     78  C   LIG    1        2.147   8.666  12.109  0.00  0.00    -0.003 C 
ENDBRANCH  76  78
ENDBRANCH  75  76
ENDBRANCH  74  75
ENDBRANCH  73  74
ENDBRANCH  72  73
ENDBRANCH  71  72
ENDBRANCH  70  71
ENDBRANCH  69  70
ENDBRANCH  68  69
ENDBRANCH  67  68
ENDBRANCH  66  67
ENDBRANCH  65  66
ENDBRANCH  64  65
ENDBRANCH  62  64
ENDBRANCH  61  62
ENDBRANCH  60  61
ENDBRANCH  59  60
BRANCH  59  79
ATOM     79  O   LIG    1        1.479  -2.361  -0.685  0.00  0.00    -0.456 OA
BRANCH  79  80
ATOM     80  C   LIG    1        0.851  -3.552  -0.603  0.00  0.00    +0.308 C 
ATOM     81  O   LIG    1        0.517  -4.122   0.437  0.00  0.00    -0.251 OA
BRANCH  80  82
ATOM     82  C   LIG    1        0.575  -4.138  -1.991  0.00  0.00    +0.120 C 
BRANCH  82  83
ATOM     83  C   LIG    1       -0.338  -5.383  -1.996  0.00  0.00    +0.011 C 
BRANCH  83  84
ATOM     84  C   LIG    1       -0.559  -5.980  -3.400  0.00  0.00    +0.001 C 
BRANCH  84  85
ATOM     85  C   LIG    1       -1.296  -5.038  -4.373  0.00  0.00    +0.000 C 
BRANCH  85  86
ATOM     86  C   LIG    1       -1.598  -5.687  -5.735  0.00  0.00    +0.000 C 
BRANCH  86  87
ATOM     87  C   LIG    1       -2.307  -4.725  -6.705  0.00  0.00    +0.000 C 
BRANCH  87  88
ATOM     88  C   LIG    1       -2.630  -5.365  -8.066  0.00  0.00    -0.000 C 
BRANCH  88  89
ATOM     89  C   LIG    1       -3.338  -4.394  -9.027  0.00  0.00    -0.000 C 
BRANCH  89  90
ATOM     90  C   LIG    1       -3.684  -5.031 -10.384  0.00  0.00    -0.000 C 
BRANCH  90  91
ATOM     91  C   LIG    1       -4.393  -4.051 -11.339  0.00  0.00    -0.000 C 
BRANCH  91  92
ATOM     92  C   LIG    1       -4.842  -4.675 -12.676  0.00  0.00    -0.000 C 
BRANCH  92  93
ATOM     93  C   LIG    1       -3.684  -5.126 -13.588  0.00  0.00    -0.000 C 
BRANCH  93  94
ATOM     94  C   LIG    1       -4.167  -5.643 -14.955  0.00  0.00    -0.000 C 
BRANCH  94  95
ATOM     95  C   LIG    1       -3.014  -6.094 -15.868  0.00  0.00    -0.003 C 
ATOM     96  C   LIG    1       -3.495  -6.595 -17.236  0.00  0.00    +0.004 C 
ENDBRANCH  94  95
ENDBRANCH  93  94
ENDBRANCH  92  93
ENDBRANCH  91  92
ENDBRANCH  90  91
ENDBRANCH  89  90
ENDBRANCH  88  89
ENDBRANCH  87  88
ENDBRANCH  86  87
ENDBRANCH  85  86
ENDBRANCH  84  85
ENDBRANCH  83  84
ENDBRANCH  82  83
ENDBRANCH  80  82
ENDBRANCH  79  80
ENDBRANCH  59  79
ENDBRANCH  58  59
ENDBRANCH  57  58
ENDBRANCH  53  57
ENDBRANCH  52  53
ENDBRANCH  51  52
ENDBRANCH  50  51
ENDBRANCH   1  50
TORSDOF 62
