REMARK  Name = DB13245
REMARK                            x       y       z     vdW  Elec       q    Type
REMARK                         _______ _______ _______ _____ _____    ______ ____
ROOT
ATOM      1  S   LIG    1        0.067   0.223  -0.367  0.00  0.00    -0.027 S 
ENDROOT
BRANCH   1   2
ATOM      2  C   LIG    1       -0.106   1.955   0.062  0.00  0.00    +0.120 C 
ATOM      3  S   LIG    1        1.228   2.903   0.438  0.00  0.00    -0.027 S 
BRANCH   2   5
ATOM      4  C   LIG    1       -2.555   1.498  -0.242  0.00  0.00    +0.130 C 
ATOM      5  N   LIG    1       -1.410   2.406  -0.063  0.00  0.00    -0.325 N 
ATOM      6  C   LIG    1       -1.765   3.828   0.085  0.00  0.00    +0.130 C 
ENDBRANCH   2   5
ENDBRANCH   1   2
BRANCH   1   7
ATOM      7  S   LIG    1        1.992  -0.430   0.010  0.00  0.00    -0.027 S 
BRANCH   7   8
ATOM      8  C   LIG    1        2.166  -0.925   1.724  0.00  0.00    +0.120 C 
ATOM      9  S   LIG    1        0.833  -1.071   2.733  0.00  0.00    -0.027 S 
BRANCH   8  10
ATOM     10  N   LIG    1        3.470  -1.258   2.051  0.00  0.00    -0.325 N 
ATOM     11  C   LIG    1        3.825  -1.840   3.358  0.00  0.00    +0.130 C 
ATOM     12  C   LIG    1        4.615  -0.959   1.176  0.00  0.00    +0.130 C 
ENDBRANCH   8  10
ENDBRANCH   7   8
ENDBRANCH   1   7
TORSDOF 5
