REMARK  Name = DB13003
REMARK                            x       y       z     vdW  Elec       q    Type
REMARK                         _______ _______ _______ _____ _____    ______ ____
ROOT
ATOM      1  C   LIG    1       -0.693  -0.042  -2.465  0.00  0.00    +0.011 C 
ATOM      2  C   LIG    1       -0.448  -0.846  -1.169  0.00  0.00    +0.026 C 
ATOM      3  C   LIG    1        0.051  -0.018   0.072  0.00  0.00    +0.135 C 
ATOM      4  C   LIG    1       -0.418  -0.907   1.291  0.00  0.00    +0.010 C 
ATOM      5  C   LIG    1        0.484  -2.183   1.456  0.00  0.00    +0.015 C 
ATOM      6  C   LIG    1       -0.578  -0.172   2.660  0.00  0.00    +0.041 C 
ATOM      7  C   LIG    1       -1.354  -0.992   3.731  0.00  0.00    +0.120 C 
ATOM      8  C   LIG    1       -2.737  -1.499   3.182  0.00  0.00    +0.035 C 
ATOM      9  C   LIG    1       -3.669  -2.284   4.182  0.00  0.00    +0.003 C 
ATOM     10  C   LIG    1       -3.156  -3.719   4.492  0.00  0.00    +0.017 C 
ATOM     11  C   LIG    1       -3.795  -1.469   5.527  0.00  0.00    +0.050 C 
ATOM     12  C   LIG    1       -5.020  -1.889   6.317  0.00  0.00    -0.001 A 
ATOM     13  C   LIG    1       -5.328  -1.953   7.678  0.00  0.00    +0.139 A 
ATOM     14  N   LIG    1       -6.541  -2.403   7.902  0.00  0.00    -0.174 NA
ATOM     15  N   LIG    1       -7.053  -2.680   6.688  0.00  0.00    -0.232 N 
ATOM     16  C   LIG    1       -6.147  -2.383   5.690  0.00  0.00    +0.071 A 
ATOM     17  C   LIG    1       -6.184  -2.485   4.245  0.00  0.00    +0.032 C 
ATOM     18  C   LIG    1       -5.058  -2.446   3.487  0.00  0.00    -0.036 C 
ATOM     19  C   LIG    1       -5.128  -2.645   2.028  0.00  0.00    -0.050 C 
ATOM     20  C   LIG    1       -6.441  -2.998   1.333  0.00  0.00    +0.044 C 
ATOM     21  C   LIG    1       -4.015  -2.549   1.270  0.00  0.00    -0.019 C 
ATOM     22  C   LIG    1       -2.623  -2.179   1.773  0.00  0.00    +0.022 C 
ATOM     23  C   LIG    1       -1.855  -1.239   0.803  0.00  0.00    +0.006 C 
ATOM     24  C   LIG    1       -1.692  -1.629  -0.675  0.00  0.00    +0.011 C 
ENDROOT
BRANCH  15  25
ATOM     25  C   LIG    1       -8.355  -3.220   6.571  0.00  0.00    +0.066 A 
ATOM     26  C   LIG    1       -9.385  -2.766   7.407  0.00  0.00    +0.028 A 
ATOM     27  C   LIG    1      -10.664  -3.304   7.291  0.00  0.00    +0.002 A 
ATOM     28  C   LIG    1      -10.914  -4.294   6.343  0.00  0.00    +0.000 A 
ATOM     29  C   LIG    1       -9.896  -4.753   5.510  0.00  0.00    +0.002 A 
ATOM     30  C   LIG    1       -8.616  -4.219   5.623  0.00  0.00    +0.028 A 
ENDBRANCH  15  25
BRANCH   3  31
ATOM     31  O   LIG    1       -0.530   1.286   0.089  0.00  0.00    -0.380 OA
ATOM     32  H   LIG    1       -1.484   1.193   0.042  0.00  0.00    +0.211 HD
ENDBRANCH   3  31
BRANCH   3  33
ATOM     33  C   LIG    1        1.597   0.220   0.059  0.00  0.00    +0.202 C 
ATOM     34  O   LIG    1        2.353  -0.526  -0.568  0.00  0.00    -0.291 OA
BRANCH  33  35
ATOM     35  C   LIG    1        2.164   1.424   0.836  0.00  0.00    +0.309 C 
BRANCH  35  36
ATOM     36  O   LIG    1        3.575   1.312   0.999  0.00  0.00    -0.457 OA
BRANCH  36  37
ATOM     37  C   LIG    1        4.261   2.238   1.698  0.00  0.00    +0.304 C 
ATOM     38  C   LIG    1        5.750   1.927   1.761  0.00  0.00    +0.136 C 
ATOM     39  O   LIG    1        3.790   3.237   2.245  0.00  0.00    -0.251 OA
ENDBRANCH  36  37
ENDBRANCH  35  36
ENDBRANCH  33  35
ENDBRANCH   3  33
BRANCH   7  40
ATOM     40  O   LIG    1       -0.549  -2.008   4.291  0.00  0.00    -0.391 OA
ATOM     41  H   LIG    1       -1.037  -2.424   5.005  0.00  0.00    +0.210 HD
ENDBRANCH   7  40
TORSDOF 7
