REMARK  Name = DB13211
REMARK                            x       y       z     vdW  Elec       q    Type
REMARK                         _______ _______ _______ _____ _____    ______ ____
ROOT
ATOM      1  O   LIG    1       -2.475   2.800   0.119  0.00  0.00    -0.485 OA
ATOM      2  C   LIG    1       -1.907   3.607  -0.845  0.00  0.00    +0.162 A 
ATOM      3  C   LIG    1       -0.733   3.239  -1.524  0.00  0.00    +0.163 A 
ATOM      4  C   LIG    1       -0.168   4.101  -2.464  0.00  0.00    +0.049 A 
ATOM      5  C   LIG    1       -0.763   5.340  -2.710  0.00  0.00    +0.004 A 
ATOM      6  C   LIG    1       -1.922   5.713  -2.023  0.00  0.00    +0.004 A 
ATOM      7  O   LIG    1       -0.141   2.005  -1.339  0.00  0.00    -0.479 OA
ATOM      8  C   LIG    1       -0.523   1.348  -0.122  0.00  0.00    +0.244 C 
ATOM      9  C   LIG    1       -2.495   4.848  -1.088  0.00  0.00    +0.049 A 
ATOM     10  C   LIG    1       -2.064   1.431   0.038  0.00  0.00    +0.277 C 
ENDROOT
BRANCH   8  11
ATOM     11  C   LIG    1       -0.007  -0.103  -0.139  0.00  0.00    +0.243 C 
BRANCH  11  12
ATOM     12  N   LIG    1        1.454  -0.118  -0.092  0.00  0.00    -0.272 N 
ATOM     13  H   LIG    1        1.914   0.622  -0.602  0.00  0.00    +0.258 HD
BRANCH  12  14
ATOM     14  C   LIG    1        2.175  -1.321   0.140  0.00  0.00    +0.376 C 
ATOM     15  N   LIG    1        1.668  -2.436   0.447  0.00  0.00    -0.130 NA
ATOM     16  H   LIG    1        2.359  -3.162   0.565  0.00  0.00    +0.306 HD
BRANCH  14  17
ATOM     17  N   LIG    1        3.565  -1.141  -0.013  0.00  0.00    -0.289 N 
ATOM     18  H   LIG    1        3.974  -0.226  -0.124  0.00  0.00    +0.255 HD
ATOM     19  H   LIG    1        4.223  -1.880   0.190  0.00  0.00    +0.255 HD
ENDBRANCH  14  17
ENDBRANCH  12  14
ENDBRANCH  11  12
ENDBRANCH   8  11
TORSDOF 4
