REMARK  Name = DB13657
REMARK                            x       y       z     vdW  Elec       q    Type
REMARK                         _______ _______ _______ _____ _____    ______ ____
ROOT
ATOM      1  O   LIG    1        1.213  -0.053  -0.240  0.00  0.00    -0.422 OA
ENDROOT
BRANCH   1   5
ATOM      2  C   LIG    1       -2.944  -0.102   0.079  0.00  0.00    +0.034 A 
ATOM      3  C   LIG    1       -2.234  -1.304  -0.075  0.00  0.00    +0.027 A 
ATOM      4  C   LIG    1       -0.847  -1.283  -0.186  0.00  0.00    +0.048 A 
ATOM      5  C   LIG    1       -0.161  -0.068  -0.146  0.00  0.00    +0.132 A 
ATOM      6  C   LIG    1       -0.861   1.127   0.031  0.00  0.00    +0.048 A 
ATOM      7  C   LIG    1       -2.248   1.108   0.143  0.00  0.00    +0.027 A 
BRANCH   2  10
ATOM      8  C   LIG    1       -6.725  -0.527   0.174  0.00  0.00    +0.109 C 
ATOM      9  C   LIG    1       -5.284  -0.929  -0.121  0.00  0.00    +0.214 C 
ATOM     10  N   LIG    1       -4.343  -0.019   0.211  0.00  0.00    -0.286 N 
ATOM     11  H   LIG    1       -4.680   0.870   0.552  0.00  0.00    +0.155 HD
ATOM     12  O   LIG    1       -5.068  -2.020  -0.647  0.00  0.00    -0.276 OA
ENDBRANCH   2  10
ENDBRANCH   1   5
BRANCH   1  13
ATOM     13  C   LIG    1        1.814   0.081  -1.466  0.00  0.00    +0.348 C 
ATOM     14  O   LIG    1        1.185   0.176  -2.525  0.00  0.00    -0.244 OA
BRANCH  13  15
ATOM     15  C   LIG    1        3.322   0.050  -1.389  0.00  0.00    +0.102 A 
ATOM     16  C   LIG    1        4.132  -0.085  -2.544  0.00  0.00    +0.146 A 
ATOM     17  C   LIG    1        5.528  -0.068  -2.426  0.00  0.00    +0.047 A 
ATOM     18  C   LIG    1        6.137   0.056  -1.181  0.00  0.00    +0.004 A 
ATOM     19  C   LIG    1        5.354   0.174  -0.038  0.00  0.00    +0.001 A 
ATOM     20  C   LIG    1        3.964   0.174  -0.141  0.00  0.00    +0.019 A 
BRANCH  16  21
ATOM     21  O   LIG    1        3.602  -0.204  -3.813  0.00  0.00    -0.425 OA
BRANCH  21  22
ATOM     22  C   LIG    1        3.458  -1.441  -4.367  0.00  0.00    +0.309 C 
ATOM     23  C   LIG    1        2.843  -1.384  -5.760  0.00  0.00    +0.136 C 
ATOM     24  O   LIG    1        3.763  -2.520  -3.854  0.00  0.00    -0.251 OA
ENDBRANCH  21  22
ENDBRANCH  16  21
ENDBRANCH  13  15
ENDBRANCH   1  13
TORSDOF 6
