REMARK  Name = DB13006
REMARK                            x       y       z     vdW  Elec       q    Type
REMARK                         _______ _______ _______ _____ _____    ______ ____
ROOT
ATOM      1  C   UNK A  1       -0.260  -0.128  -1.668  0.00  0.00    +0.159 C 
ENDROOT
BRANCH   1   4
ATOM      2  N   UNK A  1       -1.624   1.722  -2.485  0.00  0.00    -0.303 N 
ATOM      3  H   UNK A  1       -1.915   1.071  -3.200  0.00  0.00    +0.149 HD
ATOM      4  C   UNK A  1       -0.737   1.327  -1.557  0.00  0.00    +0.234 C 
ATOM      5  O   UNK A  1       -0.317   2.046  -0.648  0.00  0.00    -0.274 OA
BRANCH   2   7
ATOM      6  C   UNK A  1       -2.625   3.368  -3.981  0.00  0.00    +0.038 C 
ATOM      7  C   UNK A  1       -2.254   3.039  -2.525  0.00  0.00    +0.156 C 
BRANCH   7   8
ATOM      8  C   UNK A  1       -3.479   3.054  -1.599  0.00  0.00    +0.234 C 
ATOM      9  N   LEU A  2       -3.272   3.540  -0.364  0.00  0.00    -0.302 N 
ATOM     10  H   LEU A  2       -2.351   3.872  -0.116  0.00  0.00    +0.150 HD
ATOM     11  O   UNK A  1       -4.556   2.615  -2.004  0.00  0.00    -0.274 OA
BRANCH   9  12
ATOM     12  CA  LEU A  2       -4.285   3.626   0.690  0.00  0.00    +0.159 C 
BRANCH  12  13
ATOM     13  C   LEU A  2       -5.052   4.954   0.568  0.00  0.00    +0.234 C 
ATOM     14  N   ASN A  3       -5.871   5.047  -0.492  0.00  0.00    -0.302 N 
ATOM     15  H   ASN A  3       -5.955   4.255  -1.113  0.00  0.00    +0.150 HD
ATOM     16  O   LEU A  2       -4.873   5.856   1.387  0.00  0.00    -0.274 OA
BRANCH  14  17
ATOM     17  CA  ASN A  3       -6.635   6.237  -0.874  0.00  0.00    +0.168 C 
BRANCH  17  18
ATOM     18  C   ASN A  3       -7.924   6.367  -0.050  0.00  0.00    +0.234 C 
ATOM     19  N   SER A  4       -8.376   7.621   0.117  0.00  0.00    -0.301 N 
ATOM     20  H   SER A  4       -7.856   8.391  -0.279  0.00  0.00    +0.150 HD
ATOM     21  O   ASN A  3       -8.491   5.360   0.377  0.00  0.00    -0.274 OA
BRANCH  19  22
ATOM     22  CA  SER A  4       -9.640   7.982   0.761  0.00  0.00    +0.184 C 
BRANCH  22  23
ATOM     23  C   SER A  4      -10.868   7.612  -0.096  0.00  0.00    +0.236 C 
ATOM     24  N   SER A  5      -12.010   7.427   0.586  0.00  0.00    -0.299 N 
ATOM     25  H   SER A  5      -12.007   7.537   1.589  0.00  0.00    +0.150 HD
ATOM     26  O   SER A  4      -10.764   7.519  -1.320  0.00  0.00    -0.274 OA
BRANCH  24  27
ATOM     27  CA  SER A  5      -13.318   7.098  -0.008  0.00  0.00    +0.207 C 
BRANCH  27  28
ATOM     28  C   SER A  5      -14.449   7.861   0.792  0.00  0.00    +0.328 C 
ATOM     29  O   SER A  5      -15.393   7.178   1.257  0.00  0.00    -0.249 OA
BRANCH  28  30
ATOM     30  OXT SER A  5      -14.301   9.106   0.849  0.00  0.00    -0.479 OA
ATOM     31  HXT SER A  5      -13.548   9.506   0.461  0.00  0.00    +0.295 HD
ENDBRANCH  28  30
ENDBRANCH  27  28
BRANCH  27  32
ATOM     32  CB  SER A  5      -13.511   5.549  -0.064  0.00  0.00    +0.189 C 
BRANCH  32  33
ATOM     33  OG  SER A  5      -12.688   4.962  -1.054  0.00  0.00    -0.393 OA
ATOM     34  H   SER A  5      -11.771   5.093  -0.803  0.00  0.00    +0.209 HD
ENDBRANCH  32  33
ENDBRANCH  27  32
ENDBRANCH  24  27
ENDBRANCH  22  23
BRANCH  22  35
ATOM     35  CB  SER A  4       -9.600   9.484   1.117  0.00  0.00    +0.187 C 
BRANCH  35  36
ATOM     36  OG  SER A  4       -9.649  10.316  -0.027  0.00  0.00    -0.393 OA
ATOM     37  H   SER A  4       -9.696  11.230   0.261  0.00  0.00    +0.209 HD
ENDBRANCH  35  36
ENDBRANCH  22  35
ENDBRANCH  19  22
ENDBRANCH  17  18
BRANCH  17  38
ATOM     38  CB  ASN A  3       -6.977   6.155  -2.382  0.00  0.00    +0.127 C 
BRANCH  38  39
ATOM     39  CG  ASN A  3       -5.757   6.120  -3.314  0.00  0.00    +0.213 C 
ATOM     40  ND2 ASN A  3       -5.943   5.588  -4.524  0.00  0.00    -0.329 N 
ATOM     41 HD21 ASN A  3       -5.178   5.544  -5.181  0.00  0.00    +0.145 HD
ATOM     42 HD22 ASN A  3       -6.847   5.226  -4.791  0.00  0.00    +0.145 HD
ATOM     43  OD1 ASN A  3       -4.670   6.575  -2.962  0.00  0.00    -0.276 OA
ENDBRANCH  38  39
ENDBRANCH  17  38
ENDBRANCH  14  17
ENDBRANCH  12  13
BRANCH  12  44
ATOM     44  CB  LEU A  2       -3.599   3.451   2.069  0.00  0.00    +0.034 C 
BRANCH  44  45
ATOM     45  CG  LEU A  2       -2.902   2.085   2.280  0.00  0.00    -0.015 C 
ATOM     46  CD2 LEU A  2       -2.113   2.065   3.606  0.00  0.00    +0.007 C 
ATOM     47  CD1 LEU A  2       -3.875   0.893   2.160  0.00  0.00    +0.007 C 
ENDBRANCH  44  45
ENDBRANCH  12  44
ENDBRANCH   9  12
ENDBRANCH   7   8
ENDBRANCH   2   7
ENDBRANCH   1   4
BRANCH   1  48
ATOM     48  N   UNK A  1        1.192  -0.156  -1.544  0.00  0.00    -0.302 N 
ATOM     49  H   UNK A  1        1.612   0.663  -1.127  0.00  0.00    +0.150 HD
ATOM     50  C   UNK A  1        1.983  -1.146  -1.983  0.00  0.00    +0.234 C 
ATOM     51  O   UNK A  1        1.581  -2.174  -2.529  0.00  0.00    -0.274 OA
BRANCH  50  52
ATOM     52  C   UNK A  1        3.493  -0.912  -1.804  0.00  0.00    +0.159 C 
BRANCH  52  53
ATOM     53  N   UNK A  1        4.186  -2.131  -1.388  0.00  0.00    -0.302 N 
ATOM     54  H   UNK A  1        4.748  -2.580  -2.095  0.00  0.00    +0.150 HD
ATOM     55  C   UNK A  1        4.072  -2.708  -0.180  0.00  0.00    +0.234 C 
ATOM     56  O   UNK A  1        3.416  -2.252   0.758  0.00  0.00    -0.274 OA
BRANCH  55  57
ATOM     57  C   UNK A  1        4.803  -4.052  -0.015  0.00  0.00    +0.159 C 
BRANCH  57  58
ATOM     58  N   UNK A  1        5.709  -4.024   1.130  0.00  0.00    -0.302 N 
ATOM     59  H   UNK A  1        5.418  -4.558   1.936  0.00  0.00    +0.150 HD
ATOM     60  C   UNK A  1        6.863  -3.339   1.175  0.00  0.00    +0.234 C 
ATOM     61  O   UNK A  1        7.307  -2.655   0.252  0.00  0.00    -0.274 OA
BRANCH  60  62
ATOM     62  C   UNK A  1        7.658  -3.450   2.480  0.00  0.00    +0.159 C 
BRANCH  62  63
ATOM     63  N   UNK A  1        8.908  -4.135   2.179  0.00  0.00    -0.302 N 
ATOM     64  H   UNK A  1        9.229  -4.054   1.224  0.00  0.00    +0.150 HD
ATOM     65  C   UNK A  1        9.584  -4.917   3.033  0.00  0.00    +0.234 C 
ATOM     66  O   UNK A  1        9.275  -5.100   4.212  0.00  0.00    -0.274 OA
BRANCH  65  67
ATOM     67  C   UNK A  1       10.795  -5.655   2.433  0.00  0.00    +0.159 C 
BRANCH  67  68
ATOM     68  N   UNK A  1       11.926  -5.718   3.361  0.00  0.00    -0.302 N 
ATOM     69  H   UNK A  1       12.127  -6.633   3.738  0.00  0.00    +0.150 HD
ATOM     70  C   UNK A  1       12.647  -4.664   3.783  0.00  0.00    +0.234 C 
ATOM     71  O   UNK A  1       12.467  -3.520   3.357  0.00  0.00    -0.274 OA
BRANCH  70  72
ATOM     72  C   UNK A  1       13.736  -4.973   4.838  0.00  0.00    +0.159 C 
ATOM     73  N   UNK A  1       14.600  -3.822   5.106  0.00  0.00    -0.304 N 
ATOM     74  H   UNK A  1       15.251  -3.485   4.411  0.00  0.00    +0.149 HD
ATOM     75  C   UNK A  1       14.422  -3.200   6.287  0.00  0.00    +0.214 C 
ATOM     76  O   UNK A  1       15.005  -2.204   6.707  0.00  0.00    -0.276 OA
ATOM     77  C   UNK A  1       13.341  -3.991   7.021  0.00  0.00    +0.098 C 
ATOM     78  C   UNK A  1       13.132  -5.262   6.214  0.00  0.00    +0.041 C 
ENDBRANCH  70  72
ENDBRANCH  67  68
BRANCH  67  79
ATOM     79  C   UNK A  1       10.451  -7.095   1.967  0.00  0.00    +0.043 C 
BRANCH  79  80
ATOM     80  C   UNK A  1        9.146  -7.295   1.148  0.00  0.00    +0.123 C 
BRANCH  80  81
ATOM     81  C   UNK A  1        9.055  -6.569  -0.209  0.00  0.00    +0.305 C 
ATOM     82  O   UNK A  1        7.910  -6.448  -0.698  0.00  0.00    -0.251 OA
BRANCH  81  83
ATOM     83  O   UNK A  1       10.105  -6.155  -0.750  0.00  0.00    -0.481 OA
ATOM     84  H   UNK A  1       10.931  -6.280  -0.326  0.00  0.00    +0.295 HD
ENDBRANCH  81  83
ENDBRANCH  80  81
ENDBRANCH  79  80
ENDBRANCH  67  79
ENDBRANCH  65  67
ENDBRANCH  62  63
BRANCH  62  85
ATOM     85  C   UNK A  1        7.949  -2.078   3.138  0.00  0.00    +0.041 C 
BRANCH  85  86
ATOM     86  C   UNK A  1        6.720  -1.201   3.470  0.00  0.00    +0.098 C 
BRANCH  86  87
ATOM     87  C   UNK A  1        5.736  -1.872   4.433  0.00  0.00    +0.211 C 
ATOM     88  N   UNK A  1        5.897  -1.619   5.734  0.00  0.00    -0.329 N 
ATOM     89  H   UNK A  1        5.279  -2.038   6.414  0.00  0.00    +0.145 HD
ATOM     90  H   UNK A  1        6.642  -1.015   6.049  0.00  0.00    +0.145 HD
ATOM     91  O   UNK A  1        4.844  -2.603   4.010  0.00  0.00    -0.276 OA
ENDBRANCH  86  87
ENDBRANCH  85  86
ENDBRANCH  62  85
ENDBRANCH  60  62
ENDBRANCH  57  58
BRANCH  57  92
ATOM     92  C   UNK A  1        3.826  -5.241   0.157  0.00  0.00    +0.034 C 
BRANCH  92  93
ATOM     93  C   UNK A  1        2.772  -5.423  -0.963  0.00  0.00    -0.015 C 
ATOM     94  C   UNK A  1        3.413  -5.596  -2.358  0.00  0.00    +0.007 C 
ATOM     95  C   UNK A  1        1.801  -6.574  -0.621  0.00  0.00    +0.007 C 
ENDBRANCH  92  93
ENDBRANCH  57  92
ENDBRANCH  55  57
ENDBRANCH  52  53
BRANCH  52  96
ATOM     96  C   UNK A  1        4.177  -0.357  -3.081  0.00  0.00    +0.043 C 
BRANCH  96  97
ATOM     97  C   UNK A  1        3.466   0.807  -3.822  0.00  0.00    +0.123 C 
BRANCH  97  98
ATOM     98  C   UNK A  1        3.256   2.109  -3.025  0.00  0.00    +0.305 C 
ATOM     99  O   UNK A  1        2.338   2.863  -3.420  0.00  0.00    -0.251 OA
BRANCH  98 100
ATOM    100  O   UNK A  1        4.001   2.349  -2.048  0.00  0.00    -0.481 OA
ATOM    101  H   UNK A  1        4.669   1.737  -1.808  0.00  0.00    +0.295 HD
ENDBRANCH  98 100
ENDBRANCH  97  98
ENDBRANCH  96  97
ENDBRANCH  52  96
ENDBRANCH  50  52
ENDBRANCH   1  48
BRANCH   1 102
ATOM    102  C   UNK A  1       -0.927  -1.062  -0.626  0.00  0.00    +0.033 C 
BRANCH 102 103
ATOM    103  C   UNK A  1       -0.507  -0.838   0.842  0.00  0.00    +0.017 C 
BRANCH 103 104
ATOM    104  C   UNK A  1       -1.234  -1.780   1.814  0.00  0.00    +0.084 C 
BRANCH 104 105
ATOM    105  N   UNK A  1       -0.958  -1.424   3.217  0.00  0.00    -0.283 NA
ATOM    106  H   UNK A  1       -0.162  -0.819   3.359  0.00  0.00    +0.125 HD
BRANCH 105 107
ATOM    107  C   UNK A  1       -1.643  -1.817   4.310  0.00  0.00    +0.167 C 
BRANCH 107 108
ATOM    108  N   UNK A  1       -2.707  -2.635   4.240  0.00  0.00    -0.297 NA
ATOM    109  H   UNK A  1       -3.019  -2.983   3.344  0.00  0.00    +0.121 HD
ATOM    110  H   UNK A  1       -3.196  -2.909   5.080  0.00  0.00    +0.121 HD
ENDBRANCH 107 108
BRANCH 107 111
ATOM    111  N   UNK A  1       -1.248  -1.373   5.511  0.00  0.00    -0.297 NA
ATOM    112  H   UNK A  1       -1.746  -1.651   6.345  0.00  0.00    +0.121 HD
ATOM    113  H   UNK A  1       -0.449  -0.760   5.587  0.00  0.00    +0.121 HD
ENDBRANCH 107 111
ENDBRANCH 105 107
ENDBRANCH 104 105
ENDBRANCH 103 104
ENDBRANCH 102 103
ENDBRANCH   1 102
TORSDOF 50
