REMARK  Name = DB13105
REMARK                            x       y       z     vdW  Elec       q    Type
REMARK                         _______ _______ _______ _____ _____    ______ ____
ROOT
ATOM      1  C   LIG    1        0.450  -0.649   0.360  0.00  0.00    +0.004 C 
ATOM      2  C   LIG    1        1.151   0.502   0.346  0.00  0.00    -0.002 C 
ENDROOT
BRANCH   2   3
ATOM      3  C   LIG    1        2.536   0.575   0.770  0.00  0.00    -0.000 C 
ATOM      4  C   LIG    1        3.244   1.718   0.781  0.00  0.00    -0.000 C 
BRANCH   4   5
ATOM      5  C   LIG    1        4.630   1.777   1.215  0.00  0.00    -0.002 C 
ATOM      6  C   LIG    1        5.401   2.882   1.257  0.00  0.00    +0.004 C 
BRANCH   6   7
ATOM      7  C   LIG    1        5.018   4.304   0.870  0.00  0.00    +0.137 C 
BRANCH   7   8
ATOM      8  O   LIG    1        5.321   5.134   1.973  0.00  0.00    -0.388 OA
ATOM      9  H   LIG    1        4.784   4.856   2.718  0.00  0.00    +0.210 HD
ENDBRANCH   7   8
BRANCH   7  10
ATOM     10  C   LIG    1        5.767   4.801  -0.385  0.00  0.00    +0.036 C 
BRANCH  10  11
ATOM     11  C   LIG    1        5.330   6.198  -0.870  0.00  0.00    +0.014 C 
BRANCH  11  12
ATOM     12  C   LIG    1        6.057   6.631  -2.170  0.00  0.00    +0.120 C 
BRANCH  12  13
ATOM     13  C   LIG    1        5.639   8.012  -2.733  0.00  0.00    +0.305 C 
ATOM     14  O   LIG    1        6.201   8.364  -3.795  0.00  0.00    -0.251 OA
BRANCH  13  15
ATOM     15  O   LIG    1        4.787   8.707  -2.131  0.00  0.00    -0.481 OA
ATOM     16  H   LIG    1        4.399   8.391  -1.339  0.00  0.00    +0.295 HD
ENDBRANCH  13  15
ENDBRANCH  12  13
ENDBRANCH  11  12
ENDBRANCH  10  11
ENDBRANCH   7  10
ENDBRANCH   6   7
ENDBRANCH   4   5
ENDBRANCH   2   3
BRANCH   1  17
ATOM     17  C   LIG    1       -1.011  -0.867  -0.037  0.00  0.00    +0.141 C 
BRANCH  17  18
ATOM     18  O   LIG    1       -1.588   0.337  -0.512  0.00  0.00    -0.387 OA
ATOM     19  H   LIG    1       -1.742   0.915   0.239  0.00  0.00    +0.210 HD
ENDBRANCH  17  18
BRANCH  17  20
ATOM     20  C   LIG    1       -1.889  -1.414   1.109  0.00  0.00    +0.062 C 
BRANCH  20  22
ATOM     21  C   LIG    1       -0.651  -2.963   2.748  0.00  0.00    -0.004 C 
ATOM     22  C   LIG    1       -1.435  -2.756   1.670  0.00  0.00    -0.024 C 
BRANCH  21  24
ATOM     23  C   LIG    1        0.791  -2.171   4.578  0.00  0.00    +0.004 C 
ATOM     24  C   LIG    1       -0.067  -1.917   3.571  0.00  0.00    -0.002 C 
BRANCH  23  25
ATOM     25  C   LIG    1        1.473  -1.155   5.496  0.00  0.00    +0.137 C 
BRANCH  25  27
ATOM     26  C   LIG    1        3.661  -0.896   4.112  0.00  0.00    +0.007 C 
ATOM     27  C   LIG    1        3.015  -1.237   5.468  0.00  0.00    +0.032 C 
ENDBRANCH  25  27
BRANCH  25  28
ATOM     28  O   LIG    1        1.054   0.167   5.200  0.00  0.00    -0.388 OA
ATOM     29  H   LIG    1        0.103   0.217   5.314  0.00  0.00    +0.210 HD
ENDBRANCH  25  28
ENDBRANCH  23  25
ENDBRANCH  21  24
ENDBRANCH  20  22
ENDBRANCH  17  20
ENDBRANCH   1  17
TORSDOF 17
