REMARK  Name = DB13624
REMARK                            x       y       z     vdW  Elec       q    Type
REMARK                         _______ _______ _______ _____ _____    ______ ____
ROOT
ATOM      1  C   LIG    1       -0.511   1.478   0.199  0.00  0.00    -0.004 A 
ATOM      2  C   LIG    1       -1.172   2.012  -0.922  0.00  0.00    +0.123 A 
ATOM      3  C   LIG    1       -1.675   3.325  -0.849  0.00  0.00    +0.046 A 
ATOM      4  C   LIG    1       -1.522   4.084   0.309  0.00  0.00    +0.004 A 
ATOM      5  C   LIG    1       -0.866   3.546   1.413  0.00  0.00    +0.000 A 
ATOM      6  C   LIG    1       -0.365   2.248   1.358  0.00  0.00    +0.007 A 
ENDROOT
BRANCH   2   7
ATOM      7  O   LIG    1       -1.285   1.214  -2.047  0.00  0.00    -0.495 OA
ATOM      8  C   LIG    1       -1.921   1.727  -3.212  0.00  0.00    +0.277 C 
ENDBRANCH   2   7
BRANCH   1   9
ATOM      9  C   LIG    1        0.050   0.056   0.189  0.00  0.00    +0.057 C 
BRANCH   9  11
ATOM     10  C   LIG    1        2.034  -1.524   0.155  0.00  0.00    +0.024 C 
ATOM     11  C   LIG    1        1.582  -0.064  -0.032  0.00  0.00    +0.055 C 
BRANCH  11  12
ATOM     12  N   LIG    1        2.000   0.329  -1.378  0.00  0.00    -0.316 NA
ATOM     13  H   LIG    1        2.793  -0.223  -1.673  0.00  0.00    +0.122 HD
ATOM     14  C   LIG    1        2.294   1.748  -1.517  0.00  0.00    +0.101 C 
ENDBRANCH  11  12
ENDBRANCH   9  11
ENDBRANCH   1   9
TORSDOF 4
