REMARK  Name = DB13801
REMARK                            x       y       z     vdW  Elec       q    Type
REMARK                         _______ _______ _______ _____ _____    ______ ____
ROOT
ATOM      1  C   LIG    1        1.393  -0.007   0.057  0.00  0.00    +0.152 C 
ATOM      2  C   LIG    1        2.110   1.036  -0.829  0.00  0.00    +0.037 C 
ENDROOT
BRANCH   1   3
ATOM      3  C   LIG    1        1.958   0.015   1.484  0.00  0.00    -0.022 A 
ATOM      4  C   LIG    1        3.020  -0.833   1.819  0.00  0.00    +0.007 A 
ATOM      5  C   LIG    1        3.534  -0.848   3.115  0.00  0.00    +0.022 A 
ATOM      6  C   LIG    1        2.990  -0.019   4.097  0.00  0.00    +0.059 A 
ATOM      7 CL   LIG    1        3.655  -0.068   5.693  0.00  0.00    -0.082 Cl
ATOM      8  C   LIG    1        1.923   0.830   3.776  0.00  0.00    +0.060 A 
ATOM      9 CL   LIG    1        1.215   1.873   4.960  0.00  0.00    -0.082 Cl
ATOM     10  C   LIG    1        1.413   0.841   2.477  0.00  0.00    +0.027 A 
ENDBRANCH   1   3
BRANCH   1  11
ATOM     11  N   LIG    1       -0.083   0.088  -0.006  0.00  0.00    -0.090 N 
ATOM     12  N   LIG    1       -0.726   1.276  -0.097  0.00  0.00    +0.045 NA
ATOM     13  C   LIG    1       -1.968   1.058  -0.088  0.00  0.00    +0.317 C 
ATOM     14  C   LIG    1       -2.294  -0.396   0.038  0.00  0.00    +0.229 C 
ATOM     15  C   LIG    1       -0.900  -0.982   0.100  0.00  0.00    +0.265 C 
ATOM     16  O   LIG    1       -0.615  -2.173   0.223  0.00  0.00    -0.272 OA
BRANCH  13  17
ATOM     17  N   LIG    1       -2.973   1.993  -0.172  0.00  0.00    -0.248 N 
ATOM     18  H   LIG    1       -3.943   1.712  -0.151  0.00  0.00    +0.288 HD
ATOM     19  H   LIG    1       -2.753   2.975  -0.253  0.00  0.00    +0.288 HD
ENDBRANCH  13  17
ENDBRANCH   1  11
TORSDOF 3
