REMARK  Name = DB13021
REMARK                            x       y       z     vdW  Elec       q    Type
REMARK                         _______ _______ _______ _____ _____    ______ ____
ROOT
ATOM      1  C   LIG    1       -0.567   1.227  -0.238  0.00  0.00    +0.036 C 
ATOM      2  C   LIG    1        0.003  -0.150   0.171  0.00  0.00    +0.116 C 
ENDROOT
BRANCH   2   3
ATOM      3  C   LIG    1       -0.609  -0.640   1.489  0.00  0.00    -0.025 A 
ATOM      4  C   LIG    1       -1.883  -1.216   1.469  0.00  0.00    +0.006 A 
ATOM      5  C   LIG    1       -2.465  -1.677   2.647  0.00  0.00    +0.015 A 
ATOM      6  C   LIG    1       -1.772  -1.562   3.850  0.00  0.00    +0.013 A 
ATOM      7  I   LIG    1       -2.643  -2.257   5.620  0.00  0.00    -0.044 I 
ATOM      8  C   LIG    1       -0.504  -0.988   3.884  0.00  0.00    +0.015 A 
ATOM      9  C   LIG    1        0.078  -0.526   2.706  0.00  0.00    +0.006 A 
ENDBRANCH   2   3
BRANCH   2  10
ATOM     10  N   LIG    1        1.484  -0.167   0.140  0.00  0.00    -0.318 N 
ATOM     11  C   LIG    1        2.363  -1.228  -0.042  0.00  0.00    +0.147 A 
ATOM     12  C   LIG    1        3.636  -0.670   0.037  0.00  0.00    +0.145 A 
ATOM     13  N   LIG    1        3.601   0.625   0.273  0.00  0.00    -0.243 NA
ATOM     14  C   LIG    1        2.325   0.910   0.343  0.00  0.00    +0.200 A 
BRANCH  11  15
ATOM     15  C   LIG    1        1.926  -2.617  -0.248  0.00  0.00    +0.357 C 
ATOM     16  O   LIG    1        0.759  -3.012  -0.206  0.00  0.00    -0.243 OA
BRANCH  15  17
ATOM     17  O   LIG    1        2.998  -3.408  -0.486  0.00  0.00    -0.463 OA
ATOM     18  C   LIG    1        2.836  -4.801  -0.712  0.00  0.00    +0.280 C 
ENDBRANCH  15  17
ENDBRANCH  11  15
ENDBRANCH   2  10
TORSDOF 4
