REMARK  Name = DB13925
REMARK                            x       y       z     vdW  Elec       q    Type
REMARK                         _______ _______ _______ _____ _____    ______ ____
ROOT
ATOM      1  CA  PHE A  1        4.911  -4.424  -1.008  0.00  0.00    +0.169 C 
ATOM      2  N   PHE A  1        4.537  -5.368  -2.065  0.00  0.00    -0.302 N 
ATOM      3  H   PHE A  1        4.532  -4.976  -2.997  0.00  0.00    +0.150 HD
ATOM      4  C   PHE A  1        4.202  -6.665  -1.931  0.00  0.00    +0.237 C 
ATOM      5  O   PHE A  1        4.165  -7.256  -0.851  0.00  0.00    -0.274 OA
ATOM      6  CA  PHE A  1        3.823  -7.451  -3.209  0.00  0.00    +0.187 C 
ATOM      7  N   PHE A  1        2.808  -6.820  -4.067  0.00  0.00    -0.300 N 
ATOM      8  H   PHE A  1        1.951  -7.351  -4.137  0.00  0.00    +0.150 HD
ATOM      9  C   PHE A  1        2.874  -5.679  -4.779  0.00  0.00    +0.234 C 
ATOM     10  O   PHE A  1        3.830  -4.905  -4.793  0.00  0.00    -0.274 OA
ATOM     11  CA  PHE A  1        1.620  -5.358  -5.602  0.00  0.00    +0.159 C 
ATOM     12  N   PHE A  1        0.627  -4.780  -4.698  0.00  0.00    -0.302 N 
ATOM     13  H   PHE A  1        0.986  -4.189  -3.961  0.00  0.00    +0.150 HD
ATOM     14  C   PHE A  1       -0.700  -4.945  -4.833  0.00  0.00    +0.234 C 
ATOM     15  O   PHE A  1       -1.215  -5.643  -5.707  0.00  0.00    -0.274 OA
ATOM     16  CA  PHE A  1       -1.637  -4.207  -3.857  0.00  0.00    +0.163 C 
ATOM     17  N   PHE A  1       -1.038  -3.191  -2.990  0.00  0.00    -0.302 N 
ATOM     18  H   PHE A  1       -1.289  -3.299  -2.017  0.00  0.00    +0.150 HD
ATOM     19  C   PHE A  1       -0.523  -2.009  -3.354  0.00  0.00    +0.234 C 
ATOM     20  CA  PHE A  1       -0.635  -0.932  -2.264  0.00  0.00    +0.163 C 
ATOM     21  N   PHE A  1        0.604  -0.172  -2.137  0.00  0.00    -0.302 N 
ATOM     22  H   PHE A  1        1.013   0.076  -3.027  0.00  0.00    +0.150 HD
ATOM     23  C   PHE A  1        1.285   0.203  -1.031  0.00  0.00    +0.235 C 
ATOM     24  CA  PHE A  1        0.812  -0.073   0.426  0.00  0.00    +0.169 C 
ATOM     25  CB  PHE A  1        1.470  -1.323   1.045  0.00  0.00    +0.112 C 
ATOM     26  SG  PHE A  1        0.944  -2.947   0.415  0.00  0.00    -0.091 S 
ATOM     27  SG  PHE A  1        2.278  -3.370  -1.062  0.00  0.00    -0.091 S 
ATOM     28  O   PHE A  1        2.352   0.802  -1.147  0.00  0.00    -0.274 OA
ATOM     29  O   PHE A  1       -0.092  -1.735  -4.474  0.00  0.00    -0.274 OA
ATOM     30  CB  PHE A  1        3.676  -4.076  -0.145  0.00  0.00    +0.112 C 
ENDROOT
BRANCH  24  31
ATOM     31  N   PHE A  1       -0.626  -0.139   0.689  0.00  0.00    -0.302 N 
ATOM     32  H   PHE A  1       -0.999  -1.073   0.778  0.00  0.00    +0.150 HD
ATOM     33  C   PHE A  1       -1.457   0.900   0.847  0.00  0.00    +0.234 C 
ATOM     34  O   PHE A  1       -1.119   2.081   0.766  0.00  0.00    -0.274 OA
BRANCH  33  35
ATOM     35  CA  PHE A  1       -2.920   0.527   1.169  0.00  0.00    +0.163 C 
BRANCH  35  36
ATOM     36  N   PHE A  1       -3.841   0.834   0.072  0.00  0.00    -0.303 N 
ATOM     37  H   PHE A  1       -4.164   0.023  -0.435  0.00  0.00    +0.149 HD
ATOM     38  C   UNK A  0       -4.212   2.039  -0.396  0.00  0.00    +0.228 C 
ATOM     39  O   UNK A  0       -3.909   3.103   0.148  0.00  0.00    -0.274 OA
BRANCH  38  40
ATOM     40  C   UNK A  0       -5.037   1.992  -1.700  0.00  0.00    +0.180 C 
BRANCH  40  41
ATOM     41  N   UNK A  0       -5.125   3.287  -2.381  0.00  0.00    -0.292 NA
ATOM     42  C   UNK A  0       -6.243   3.325  -3.341  0.00  0.00    +0.100 C 
ATOM     43  C   UNK A  0       -6.092   2.341  -4.533  0.00  0.00    +0.100 C 
ATOM     44  N   UNK A  0       -7.196   2.435  -5.503  0.00  0.00    -0.290 NA
ATOM     45  C   UNK A  0       -7.250   3.723  -6.214  0.00  0.00    +0.100 C 
ATOM     46  C   UNK A  0       -6.060   4.008  -7.181  0.00  0.00    +0.100 C 
ATOM     47  N   UNK A  0       -5.640   5.416  -7.266  0.00  0.00    -0.290 NA
ATOM     48  C   UNK A  0       -5.021   5.929  -6.030  0.00  0.00    +0.100 C 
ATOM     49  C   UNK A  0       -3.667   5.250  -5.706  0.00  0.00    +0.100 C 
ATOM     50  N   UNK A  0       -3.090   5.723  -4.433  0.00  0.00    -0.290 NA
ATOM     51  C   UNK A  0       -3.858   5.308  -3.247  0.00  0.00    +0.100 C 
ATOM     52  C   UNK A  0       -3.857   3.779  -2.952  0.00  0.00    +0.100 C 
BRANCH  47  53
ATOM     53  C   UNK A  0       -6.759   6.267  -7.724  0.00  0.00    +0.205 C 
BRANCH  53  54
ATOM     54  C   UNK A  0       -6.354   7.621  -8.364  0.00  0.00    +0.319 C 
ATOM     55  O   UNK A  0       -5.194   7.794  -8.806  0.00  0.00    -0.250 OA
BRANCH  54  56
ATOM     56  O   UNK A  0       -7.267   8.474  -8.447  0.00  0.00    -0.480 OA
ATOM     57  H   UNK A  0       -8.116   8.287  -8.098  0.00  0.00    +0.295 HD
ENDBRANCH  54  56
ENDBRANCH  53  54
ENDBRANCH  47  53
BRANCH  50  58
ATOM     58  C   UNK A  0       -1.665   5.358  -4.281  0.00  0.00    +0.205 C 
BRANCH  58  59
ATOM     59  C   UNK A  0       -0.672   6.110  -5.207  0.00  0.00    +0.319 C 
ATOM     60  O   UNK A  0       -0.978   7.226  -5.691  0.00  0.00    -0.250 OA
BRANCH  59  61
ATOM     61  O   UNK A  0        0.437   5.555  -5.378  0.00  0.00    -0.480 OA
ATOM     62  H   UNK A  0        0.607   4.719  -4.990  0.00  0.00    +0.295 HD
ENDBRANCH  59  61
ENDBRANCH  58  59
ENDBRANCH  50  58
BRANCH  44  63
ATOM     63  C   UNK A  0       -7.191   1.310  -6.462  0.00  0.00    +0.205 C 
BRANCH  63  64
ATOM     64  C   UNK A  0       -7.602  -0.062  -5.866  0.00  0.00    +0.319 C 
ATOM     65  O   UNK A  0       -7.143  -1.071  -6.446  0.00  0.00    -0.250 OA
BRANCH  64  66
ATOM     66  O   UNK A  0       -8.384  -0.111  -4.886  0.00  0.00    -0.480 OA
ATOM     67  H   UNK A  0       -8.694   0.682  -4.494  0.00  0.00    +0.295 HD
ENDBRANCH  64  66
ENDBRANCH  63  64
ENDBRANCH  44  63
ENDBRANCH  40  41
ENDBRANCH  38  40
ENDBRANCH  35  36
BRANCH  35  68
ATOM     68  CB  PHE A  1       -3.423   1.057   2.535  0.00  0.00    +0.067 C 
BRANCH  68  69
ATOM     69  CG  PHE A  1       -2.497   0.791   3.712  0.00  0.00    -0.045 A 
ATOM     70  CD2 PHE A  1       -1.576   1.774   4.134  0.00  0.00    +0.004 A 
ATOM     71  CE2 PHE A  1       -0.662   1.484   5.138  0.00  0.00    +0.000 A 
ATOM     72  CZ  PHE A  1       -0.633   0.221   5.714  0.00  0.00    +0.000 A 
ATOM     73  CE1 PHE A  1       -1.510  -0.768   5.285  0.00  0.00    +0.000 A 
ATOM     74  CD1 PHE A  1       -2.432  -0.498   4.282  0.00  0.00    +0.004 A 
ENDBRANCH  68  69
ENDBRANCH  35  68
ENDBRANCH  33  35
ENDBRANCH  24  31
BRANCH   1  77
ATOM     75  N   PHE A  1        6.053  -4.918   1.128  0.00  0.00    -0.299 N 
ATOM     76  H   PHE A  1        5.198  -4.608   1.566  0.00  0.00    +0.150 HD
ATOM     77  C   PHE A  1        6.143  -4.912  -0.213  0.00  0.00    +0.235 C 
ATOM     78  O   PHE A  1        7.146  -5.266  -0.834  0.00  0.00    -0.274 OA
BRANCH  75  79
ATOM     79  CA  PHE A  1        7.073  -5.430   2.046  0.00  0.00    +0.210 C 
BRANCH  79  80
ATOM     80  CB  PHE A  1        6.736  -5.049   3.515  0.00  0.00    +0.143 C 
ATOM     81  CG2 PHE A  1        6.570  -3.536   3.731  0.00  0.00    +0.040 C 
BRANCH  80  82
ATOM     82  OG1 PHE A  1        5.579  -5.707   4.003  0.00  0.00    -0.390 OA
ATOM     83  HG1 PHE A  1        5.731  -6.655   3.976  0.00  0.00    +0.210 HD
ENDBRANCH  80  82
ENDBRANCH  79  80
BRANCH  79  84
ATOM     84  C   PHE A  1        7.212  -6.970   1.963  0.00  0.00    +0.328 C 
ATOM     85  OXT PHE A  1        6.287  -7.733   1.765  0.00  0.00    -0.249 OA
BRANCH  84  86
ATOM     86  O   PHE A  1        8.516  -7.325   2.154  0.00  0.00    -0.479 OA
ATOM     87  H   PHE A  1        8.646  -8.275   2.103  0.00  0.00    +0.295 HD
ENDBRANCH  84  86
ENDBRANCH  79  84
ENDBRANCH  75  79
ENDBRANCH   1  77
BRANCH   6  88
ATOM     88  CB  PHE A  1        5.114  -7.909  -3.960  0.00  0.00    +0.141 C 
ATOM     89  CG2 PHE A  1        4.847  -8.623  -5.295  0.00  0.00    +0.040 C 
BRANCH  88  90
ATOM     90  OG1 PHE A  1        6.091  -6.900  -4.145  0.00  0.00    -0.390 OA
ATOM     91  HG1 PHE A  1        6.386  -6.596  -3.283  0.00  0.00    +0.210 HD
ENDBRANCH  88  90
ENDBRANCH   6  88
BRANCH  11  92
ATOM     92  CB  PHE A  1        1.846  -4.398  -6.801  0.00  0.00    +0.032 C 
BRANCH  92  93
ATOM     93  CG  PHE A  1        2.562  -5.005  -8.028  0.00  0.00    +0.003 C 
BRANCH  93  94
ATOM     94  CD  PHE A  1        4.093  -5.127  -7.913  0.00  0.00    +0.015 C 
BRANCH  94  95
ATOM     95  CE  PHE A  1        4.779  -5.499  -9.237  0.00  0.00    +0.077 C 
BRANCH  95  96
ATOM     96  NZ  PHE A  1        4.455  -6.859  -9.620  0.00  0.00    -0.330 NA
ATOM     97  HZ1 PHE A  1        4.804  -7.498  -8.919  0.00  0.00    +0.118 HD
ATOM     98  HZ2 PHE A  1        4.931  -7.091 -10.480  0.00  0.00    +0.118 HD
ENDBRANCH  95  96
ENDBRANCH  94  95
ENDBRANCH  93  94
ENDBRANCH  92  93
ENDBRANCH  11  92
BRANCH  16  99
ATOM     99  CB  PHE A  1       -2.426  -5.188  -2.958  0.00  0.00    +0.069 C 
BRANCH  99 100
ATOM    100  CG  PHE A  1       -3.152  -4.548  -1.804  0.00  0.00    -0.020 A 
ATOM    101  CD2 PHE A  1       -4.228  -3.559  -1.837  0.00  0.00    +0.003 A 
ATOM    102  CE3 PHE A  1       -4.984  -2.946  -2.864  0.00  0.00    +0.010 A 
ATOM    103  CZ3 PHE A  1       -5.957  -1.968  -2.571  0.00  0.00    +0.001 A 
ATOM    104  CH2 PHE A  1       -6.204  -1.581  -1.240  0.00  0.00    +0.002 A 
ATOM    105  CZ2 PHE A  1       -5.475  -2.174  -0.193  0.00  0.00    +0.026 A 
ATOM    106  CE2 PHE A  1       -4.502  -3.143  -0.497  0.00  0.00    +0.047 A 
ATOM    107  NE1 PHE A  1       -3.625  -3.876   0.274  0.00  0.00    -0.360 N 
ATOM    108  HE1 PHE A  1       -3.545  -3.830   1.280  0.00  0.00    +0.165 HD
ATOM    109  CD1 PHE A  1       -2.829  -4.695  -0.498  0.00  0.00    +0.087 A 
ENDBRANCH  99 100
ENDBRANCH  16  99
BRANCH  20 110
ATOM    110  CB  PHE A  1       -1.826   0.032  -2.513  0.00  0.00    +0.067 C 
BRANCH 110 111
ATOM    111  CG  PHE A  1       -2.105   0.493  -3.936  0.00  0.00    -0.045 A 
ATOM    112  CD2 PHE A  1       -3.175  -0.067  -4.667  0.00  0.00    +0.007 A 
ATOM    113  CE2 PHE A  1       -3.447   0.372  -5.976  0.00  0.00    +0.045 A 
ATOM    114  CZ  PHE A  1       -2.655   1.378  -6.560  0.00  0.00    +0.117 A 
ATOM    115  CE1 PHE A  1       -1.581   1.934  -5.838  0.00  0.00    +0.045 A 
ATOM    116  CD1 PHE A  1       -1.307   1.494  -4.528  0.00  0.00    +0.007 A 
BRANCH 114 117
ATOM    117  OH  PHE A  1       -2.930   1.817  -7.822  0.00  0.00    -0.507 OA
ATOM    118  HH  PHE A  1       -3.702   1.395  -8.206  0.00  0.00    +0.292 HD
ENDBRANCH 114 117
ENDBRANCH 110 111
ENDBRANCH  20 110
TORSDOF 34
