REMARK  Name = DB13041
REMARK                            x       y       z     vdW  Elec       q    Type
REMARK                         _______ _______ _______ _____ _____    ______ ____
ROOT
ATOM      1  C   LIG    1        1.319  -0.201   0.275  0.00  0.00    -0.014 A 
ATOM      2  C   LIG    1        1.852  -0.756   1.462  0.00  0.00    -0.039 A 
ATOM      3  C   LIG    1        1.027  -0.827   2.764  0.00  0.00    +0.040 C 
ATOM      4  C   LIG    1        1.224   0.405   3.734  0.00  0.00    +0.040 C 
ATOM      5  C   LIG    1        1.971   1.592   3.115  0.00  0.00    -0.046 A 
ATOM      6  C   LIG    1        3.355   1.711   3.283  0.00  0.00    +0.012 A 
ATOM      7  C   LIG    1        4.143   2.372   2.325  0.00  0.00    -0.014 A 
ATOM      8  C   LIG    1        3.485   2.905   1.193  0.00  0.00    -0.039 A 
ATOM      9  C   LIG    1        4.184   3.006  -0.178  0.00  0.00    +0.040 C 
ATOM     10  C   LIG    1        4.441   1.616  -0.879  0.00  0.00    +0.040 C 
ATOM     11  C   LIG    1        3.576   0.471  -0.336  0.00  0.00    -0.046 A 
ATOM     12  C   LIG    1        4.095  -0.371   0.649  0.00  0.00    +0.004 A 
ATOM     13  C   LIG    1        2.093   3.058   1.212  0.00  0.00    +0.004 A 
ATOM     14  C   LIG    1        1.333   2.401   2.176  0.00  0.00    +0.004 A 
ATOM     15  C   LIG    1        3.230  -0.978   1.558  0.00  0.00    +0.004 A 
ATOM     16  C   LIG    1        2.207   0.427  -0.613  0.00  0.00    +0.012 A 
ENDROOT
BRANCH   1  22
ATOM     17  C   LIG    1       -4.432  -1.534  -0.500  0.00  0.00    +0.129 A 
ATOM     18  N   LIG    1       -4.241  -0.250  -0.699  0.00  0.00    -0.231 NA
ATOM     19  C   LIG    1       -2.897  -0.064  -0.517  0.00  0.00    +0.089 A 
ATOM     20  C   LIG    1       -2.147   1.115  -0.599  0.00  0.00    +0.030 A 
ATOM     21  C   LIG    1       -0.778   1.041  -0.341  0.00  0.00    +0.011 A 
ATOM     22  C   LIG    1       -0.146  -0.164  -0.001  0.00  0.00    -0.016 A 
ATOM     23  C   LIG    1       -0.882  -1.357   0.063  0.00  0.00    +0.036 A 
ATOM     24  C   LIG    1       -2.252  -1.281  -0.194  0.00  0.00    +0.067 A 
ATOM     25  N   LIG    1       -3.269  -2.207  -0.204  0.00  0.00    -0.340 N 
ATOM     26  H   LIG    1       -3.230  -3.197  -0.012  0.00  0.00    +0.167 HD
BRANCH  17  29
ATOM     27  C   LIG    1       -7.261  -0.995   1.068  0.00  0.00    +0.237 C 
ATOM     28  N   LIG    1       -6.963  -1.407  -0.201  0.00  0.00    -0.287 N 
ATOM     29  C   LIG    1       -5.785  -2.238  -0.537  0.00  0.00    +0.143 C 
ATOM     30  C   LIG    1       -6.123  -2.858  -1.898  0.00  0.00    +0.035 C 
ATOM     31  C   LIG    1       -7.135  -1.910  -2.513  0.00  0.00    +0.012 C 
ATOM     32  C   LIG    1       -6.481  -0.846  -3.441  0.00  0.00    +0.005 C 
ATOM     33  C   LIG    1       -7.347   0.391  -3.716  0.00  0.00    +0.000 C 
ATOM     34  C   LIG    1       -7.875   0.997  -2.408  0.00  0.00    +0.002 C 
ATOM     35  C   LIG    1       -8.707  -0.037  -1.639  0.00  0.00    +0.023 C 
ATOM     36  C   LIG    1       -7.946  -1.357  -1.315  0.00  0.00    +0.080 C 
ATOM     37  O   LIG    1       -8.323  -0.439   1.358  0.00  0.00    -0.274 OA
BRANCH  27  38
ATOM     38  C   LIG    1       -6.255  -1.240   2.238  0.00  0.00    +0.165 C 
BRANCH  38  39
ATOM     39  N   LIG    1       -5.585   0.039   2.523  0.00  0.00    -0.270 N 
ATOM     40  H   LIG    1       -6.146   0.875   2.596  0.00  0.00    +0.153 HD
ATOM     41  C   LIG    1       -4.221   0.100   2.791  0.00  0.00    +0.401 C 
ATOM     42  O   LIG    1       -3.444  -0.857   2.860  0.00  0.00    -0.226 OA
BRANCH  41  43
ATOM     43  O   LIG    1       -3.868   1.387   2.966  0.00  0.00    -0.454 OA
ATOM     44  C   LIG    1       -2.516   1.736   3.228  0.00  0.00    +0.282 C 
ENDBRANCH  41  43
ENDBRANCH  38  39
BRANCH  38  46
ATOM     45  C   LIG    1       -6.088  -2.020   4.705  0.00  0.00    +0.009 C 
ATOM     46  C   LIG    1       -7.019  -1.792   3.497  0.00  0.00    +0.012 C 
ATOM     47  C   LIG    1       -7.810  -3.092   3.226  0.00  0.00    +0.009 C 
ENDBRANCH  38  46
ENDBRANCH  27  38
ENDBRANCH  17  29
ENDBRANCH   1  22
BRANCH   7  48
ATOM     48  C   LIG    1        5.631   2.365   2.458  0.00  0.00    -0.016 A 
ATOM     49  C   LIG    1        6.352   3.552   2.257  0.00  0.00    +0.036 A 
ATOM     50  C   LIG    1        7.742   3.491   2.384  0.00  0.00    +0.067 A 
ATOM     51  N   LIG    1        8.752   4.418   2.263  0.00  0.00    -0.340 N 
ATOM     52  H   LIG    1        8.689   5.402   2.047  0.00  0.00    +0.167 HD
ATOM     53  C   LIG    1        9.939   3.768   2.515  0.00  0.00    +0.129 A 
ATOM     54  N   LIG    1        9.773   2.493   2.779  0.00  0.00    -0.231 NA
ATOM     55  C   LIG    1        8.421   2.294   2.711  0.00  0.00    +0.089 A 
ATOM     56  C   LIG    1        7.691   1.122   2.927  0.00  0.00    +0.030 A 
ATOM     57  C   LIG    1        6.304   1.183   2.804  0.00  0.00    +0.011 A 
BRANCH  53  58
ATOM     58  C   LIG    1       11.281   4.494   2.505  0.00  0.00    +0.143 C 
ATOM     59  N   LIG    1       12.368   3.859   3.285  0.00  0.00    -0.287 N 
ATOM     60  C   LIG    1       12.444   3.899   4.649  0.00  0.00    +0.237 C 
ATOM     61  O   LIG    1       13.445   3.537   5.273  0.00  0.00    -0.274 OA
ATOM     62  C   LIG    1       13.521   3.470   2.431  0.00  0.00    +0.080 C 
ATOM     63  C   LIG    1       14.262   2.124   2.687  0.00  0.00    +0.023 C 
ATOM     64  C   LIG    1       13.535   0.889   2.138  0.00  0.00    +0.002 C 
ATOM     65  C   LIG    1       13.278   1.045   0.633  0.00  0.00    +0.000 C 
ATOM     66  C   LIG    1       12.428   2.290   0.345  0.00  0.00    +0.005 C 
ATOM     67  C   LIG    1       12.946   3.602   1.000  0.00  0.00    +0.012 C 
ATOM     68  C   LIG    1       11.876   4.672   1.102  0.00  0.00    +0.035 C 
BRANCH  60  69
ATOM     69  C   LIG    1       11.247   4.441   5.492  0.00  0.00    +0.165 C 
BRANCH  69  70
ATOM     70  N   LIG    1       10.573   3.280   6.097  0.00  0.00    -0.270 N 
ATOM     71  H   LIG    1       11.134   2.589   6.574  0.00  0.00    +0.153 HD
ATOM     72  C   LIG    1        9.187   3.172   6.112  0.00  0.00    +0.401 C 
ATOM     73  O   LIG    1        8.382   3.999   5.674  0.00  0.00    -0.226 OA
BRANCH  72  74
ATOM     74  O   LIG    1        8.849   2.003   6.688  0.00  0.00    -0.454 OA
ATOM     75  C   LIG    1        7.485   1.621   6.806  0.00  0.00    +0.282 C 
ENDBRANCH  72  74
ENDBRANCH  69  70
BRANCH  69  76
ATOM     76  C   LIG    1       11.772   5.437   6.588  0.00  0.00    +0.012 C 
ATOM     77  C   LIG    1       12.574   6.630   6.018  0.00  0.00    +0.009 C 
ATOM     78  C   LIG    1       10.638   5.980   7.480  0.00  0.00    +0.009 C 
ENDBRANCH  69  76
ENDBRANCH  60  69
ENDBRANCH  53  58
ENDBRANCH   7  48
TORSDOF 12
