REMARK  Name = DB13008
REMARK                            x       y       z     vdW  Elec       q    Type
REMARK                         _______ _______ _______ _____ _____    ______ ____
ROOT
ATOM      1  C   LIG    1        1.321   0.162  -0.219  0.00  0.00    +0.015 C 
ATOM      2  C   LIG    1        1.934  -0.037   1.197  0.00  0.00    +0.021 C 
ATOM      3  C   LIG    1        1.784   1.567  -0.695  0.00  0.00    +0.021 C 
ENDROOT
BRANCH   1   8
ATOM      4  C   LIG    1       -2.171  -1.400   0.380  0.00  0.00    -0.000 A 
ATOM      5  C   LIG    1       -3.004  -0.279   0.167  0.00  0.00    +0.121 A 
ATOM      6  C   LIG    1       -2.459   0.963  -0.153  0.00  0.00    +0.046 A 
ATOM      7  C   LIG    1       -1.084   1.125  -0.273  0.00  0.00    +0.008 A 
ATOM      8  C   LIG    1       -0.220   0.041  -0.076  0.00  0.00    -0.037 A 
ATOM      9  C   LIG    1       -0.782  -1.201   0.253  0.00  0.00    +0.012 A 
BRANCH   4  11
ATOM     10  C   LIG    1       -3.546  -2.748   2.064  0.00  0.00    +0.015 C 
ATOM     11  C   LIG    1       -2.748  -2.806   0.736  0.00  0.00    -0.009 C 
ATOM     12  C   LIG    1       -3.657  -3.322  -0.410  0.00  0.00    +0.015 C 
ATOM     13  C   LIG    1       -1.649  -3.888   0.939  0.00  0.00    +0.015 C 
ENDBRANCH   4  11
BRANCH   5  14
ATOM     14  O   LIG    1       -4.370  -0.347   0.257  0.00  0.00    -0.506 OA
ATOM     15  H   LIG    1       -4.797   0.496   0.086  0.00  0.00    +0.292 HD
ENDBRANCH   5  14
ENDBRANCH   1   8
BRANCH   1  16
ATOM     16  C   LIG    1        1.837  -0.868  -1.258  0.00  0.00    -0.037 A 
ATOM     17  C   LIG    1        1.256  -0.902  -2.535  0.00  0.00    +0.012 A 
ATOM     18  C   LIG    1        1.654  -1.816  -3.529  0.00  0.00    -0.000 A 
ATOM     19  C   LIG    1        2.693  -2.715  -3.199  0.00  0.00    +0.121 A 
ATOM     20  C   LIG    1        3.285  -2.688  -1.938  0.00  0.00    +0.046 A 
ATOM     21  C   LIG    1        2.863  -1.777  -0.976  0.00  0.00    +0.008 A 
BRANCH  18  22
ATOM     22  C   LIG    1        0.963  -1.826  -4.929  0.00  0.00    -0.009 C 
ATOM     23  C   LIG    1        1.995  -1.531  -6.048  0.00  0.00    +0.015 C 
ATOM     24  C   LIG    1        0.277  -3.194  -5.182  0.00  0.00    +0.015 C 
ATOM     25  C   LIG    1       -0.151  -0.750  -5.071  0.00  0.00    +0.015 C 
ENDBRANCH  18  22
BRANCH  19  26
ATOM     26  O   LIG    1        3.169  -3.649  -4.083  0.00  0.00    -0.506 OA
ATOM     27  H   LIG    1        3.877  -4.182  -3.715  0.00  0.00    +0.292 HD
ENDBRANCH  19  26
ENDBRANCH   1  16
TORSDOF 6
