REMARK  Name = DB13682
REMARK                            x       y       z     vdW  Elec       q    Type
REMARK                         _______ _______ _______ _____ _____    ______ ____
ROOT
ATOM      1  N   LIG    1        4.322  -3.618  -0.595  0.00  0.00    -0.249 N 
ATOM      2  CA  LIG    1        4.378  -4.982  -0.700  0.00  0.00    +0.123 C 
ATOM      3  C   LIG    1        4.591  -5.804   0.375  0.00  0.00    -0.017 C 
ATOM      4  C   LIG    1        4.824  -5.212   1.781  0.00  0.00    +0.105 C 
ATOM      5  S   LIG    1        3.880  -3.672   2.060  0.00  0.00    -0.131 S 
ATOM      6  C   LIG    1        4.578  -2.812   0.617  0.00  0.00    +0.169 C 
ATOM      7  CA  LIG    1        3.829  -1.643  -0.085  0.00  0.00    +0.191 C 
ATOM      8  C   LIG    1        3.963  -2.517  -1.376  0.00  0.00    +0.244 C 
ATOM      9  O   LIG    1        3.769  -2.344  -2.577  0.00  0.00    -0.273 OA
ENDROOT
BRANCH   7  10
ATOM     10  N   LIG    1        2.434  -1.454   0.322  0.00  0.00    -0.296 N 
ATOM     11  H   LIG    1        2.085  -2.111   1.006  0.00  0.00    +0.150 HD
ATOM     12  C   LIG    1        1.554  -0.609  -0.247  0.00  0.00    +0.268 C 
ATOM     13  O   LIG    1        1.860   0.247  -1.079  0.00  0.00    -0.268 OA
BRANCH  12  14
ATOM     14  C   LIG    1        0.168  -0.822   0.210  0.00  0.00    +0.190 C 
ATOM     15  N   LIG    1       -0.490   0.111   0.807  0.00  0.00    -0.078 NA
BRANCH  14  16
ATOM     16  C   LIG    1       -0.484  -2.136  -0.034  0.00  0.00    +0.107 A 
ATOM     17  C   LIG    1       -1.711  -2.521   0.524  0.00  0.00    +0.078 A 
ATOM     18  S   LIG    1       -2.136  -4.113  -0.035  0.00  0.00    -0.060 S 
ATOM     19  C   LIG    1       -0.670  -4.117  -0.956  0.00  0.00    +0.156 A 
ATOM     20  N   LIG    1        0.057  -3.037  -0.847  0.00  0.00    -0.223 NA
BRANCH  19  21
ATOM     21  N   LIG    1       -0.346  -5.192  -1.729  0.00  0.00    -0.338 N 
ATOM     22  H   LIG    1       -0.960  -5.988  -1.822  0.00  0.00    +0.144 HD
ATOM     23  H   LIG    1        0.509  -5.212  -2.269  0.00  0.00    +0.144 HD
ENDBRANCH  19  21
ENDBRANCH  14  16
BRANCH  15  24
ATOM     24  O   LIG    1        0.215   1.319   1.023  0.00  0.00    -0.396 OA
ATOM     25  C   LIG    1       -0.653   2.250   1.647  0.00  0.00    +0.313 C 
ENDBRANCH  15  24
ENDBRANCH  12  14
ENDBRANCH   7  10
BRANCH   2  26
ATOM     26  C   LIG    1        4.170  -5.579  -2.126  0.00  0.00    +0.351 C 
ATOM     27  OXT LIG    1        2.974  -5.706  -2.476  0.00  0.00    -0.244 OA
BRANCH  26  28
ATOM     28  O   LIG    1        5.227  -5.869  -2.731  0.00  0.00    -0.476 OA
ATOM     29  H   LIG    1        5.189  -6.232  -3.593  0.00  0.00    +0.295 HD
ENDBRANCH  26  28
ENDBRANCH   2  26
BRANCH   3  30
ATOM     30  C   LIG    1        4.620  -7.342   0.290  0.00  0.00    +0.119 C 
BRANCH  30  31
ATOM     31  N   LIG    1        3.839  -8.035   1.349  0.00  0.00    -0.286 NA
ATOM     32  C   LIG    1        4.506  -8.785   2.266  0.00  0.00    +0.079 C 
ATOM     33  C   LIG    1        3.811  -9.426   3.296  0.00  0.00    +0.017 C 
ATOM     34  C   LIG    1        2.423  -9.300   3.374  0.00  0.00    +0.007 C 
ATOM     35  C   LIG    1        1.752  -8.554   2.403  0.00  0.00    +0.002 C 
ATOM     36  C   LIG    1        0.284  -8.218   2.277  0.00  0.00    +0.010 C 
ATOM     37  C   LIG    1        0.176  -7.524   0.914  0.00  0.00    +0.002 C 
ATOM     38  C   LIG    1        1.587  -7.097   0.497  0.00  0.00    +0.025 C 
ATOM     39  C   LIG    1        2.484  -7.920   1.398  0.00  0.00    +0.048 C 
ENDBRANCH  30  31
ENDBRANCH   3  30
TORSDOF 9
