REMARK  Name = DB13036
REMARK                            x       y       z     vdW  Elec       q    Type
REMARK                         _______ _______ _______ _____ _____    ______ ____
ROOT
ATOM      1  C   LIG    1        4.253   0.047   2.906  0.00  0.00    +0.001 A 
ATOM      2  C   LIG    1        4.552  -0.061   1.551  0.00  0.00    +0.010 A 
ATOM      3  C   LIG    1        3.504  -0.045   0.616  0.00  0.00    +0.003 A 
ATOM      4  C   LIG    1        2.161   0.081   1.087  0.00  0.00    +0.050 A 
ATOM      5  N   LIG    1        1.333   0.067  -0.026  0.00  0.00    -0.343 N 
ATOM      6  C   LIG    1        2.104  -0.059  -1.165  0.00  0.00    +0.023 A 
ATOM      7  C   LIG    1        1.566  -0.014  -2.599  0.00  0.00    +0.055 C 
ATOM      8  C   LIG    1        2.737   0.323  -3.549  0.00  0.00    +0.027 C 
ATOM      9  C   LIG    1        3.970  -0.537  -3.210  0.00  0.00    +0.081 C 
ATOM     10  C   LIG    1        4.587  -0.211  -1.831  0.00  0.00    +0.058 C 
ATOM     11  C   LIG    1        1.866   0.196   2.453  0.00  0.00    +0.026 A 
ATOM     12  C   LIG    1        3.452  -0.118  -0.813  0.00  0.00    -0.017 A 
ATOM     13  C   LIG    1        2.939   0.174   3.344  0.00  0.00    +0.002 A 
ENDROOT
BRANCH   9  14
ATOM     14  N   LIG    1        5.006  -0.328  -4.241  0.00  0.00    -0.187 NA
ATOM     15  H   LIG    1        5.727   0.356  -3.996  0.00  0.00    +0.148 HD
BRANCH  14  16
ATOM     16  S   LIG    1        5.583  -1.723  -5.144  0.00  0.00    +0.059 S 
ATOM     17  O   LIG    1        4.415  -2.446  -5.661  0.00  0.00    -0.153 OA
ATOM     18  O   LIG    1        6.641  -1.256  -6.047  0.00  0.00    -0.153 OA
BRANCH  16  19
ATOM     19  C   LIG    1        6.375  -2.756  -3.915  0.00  0.00    +0.105 A 
ATOM     20  C   LIG    1        7.502  -2.272  -3.248  0.00  0.00    +0.031 A 
ATOM     21  C   LIG    1        8.119  -3.055  -2.276  0.00  0.00    +0.040 A 
ATOM     22  C   LIG    1        7.607  -4.316  -1.976  0.00  0.00    +0.124 A 
ATOM     23  F   LIG    1        8.207  -5.075  -1.031  0.00  0.00    -0.205 F 
ATOM     24  C   LIG    1        6.483  -4.802  -2.642  0.00  0.00    +0.040 A 
ATOM     25  C   LIG    1        5.864  -4.021  -3.615  0.00  0.00    +0.031 A 
ENDBRANCH  16  19
ENDBRANCH  14  16
ENDBRANCH   9  14
BRANCH   5  26
ATOM     26  C   LIG    1       -0.122   0.216  -0.002  0.00  0.00    +0.133 C 
BRANCH  26  27
ATOM     27  C   LIG    1       -0.526   1.717  -0.007  0.00  0.00    +0.142 C 
BRANCH  27  28
ATOM     28  C   LIG    1       -1.812   2.011  -0.811  0.00  0.00    +0.306 C 
ATOM     29  O   LIG    1       -1.830   3.062  -1.490  0.00  0.00    -0.251 OA
BRANCH  28  30
ATOM     30  O   LIG    1       -2.777   1.218  -0.715  0.00  0.00    -0.481 OA
ATOM     31  H   LIG    1       -2.698   0.446  -0.188  0.00  0.00    +0.295 HD
ENDBRANCH  28  30
ENDBRANCH  27  28
ENDBRANCH  26  27
ENDBRANCH   5  26
TORSDOF 7
