REMARK  Name = DB13707
REMARK                            x       y       z     vdW  Elec       q    Type
REMARK                         _______ _______ _______ _____ _____    ______ ____
ROOT
ATOM      1  C   LIG    1       -0.036  -0.020   0.001  0.00  0.00    +0.262 C 
ENDROOT
BRANCH   1   2
ATOM      2  O   LIG    1       -0.533  -0.727   1.140  0.00  0.00    -0.378 OA
ATOM      3  H   LIG    1       -1.004  -0.098   1.692  0.00  0.00    +0.211 HD
ENDBRANCH   1   2
BRANCH   1   4
ATOM      4  C   LIG    1       -0.663   1.407  -0.116  0.00  0.00    +0.337 C 
ATOM      5  O   LIG    1       -0.437   2.039  -1.174  0.00  0.00    -0.248 OA
BRANCH   4   6
ATOM      6  O   LIG    1       -1.377   1.862   0.812  0.00  0.00    -0.479 OA
ATOM      7  H   LIG    1       -1.519   1.354   1.586  0.00  0.00    +0.295 HD
ENDBRANCH   4   6
ENDBRANCH   1   4
BRANCH   1   8
ATOM      8  C   LIG    1        1.536   0.020   0.002  0.00  0.00    +0.262 C 
BRANCH   8   9
ATOM      9  O   LIG    1        2.033   0.727   1.140  0.00  0.00    -0.378 OA
ATOM     10  H   LIG    1        2.504   0.098   1.692  0.00  0.00    +0.211 HD
ENDBRANCH   8   9
BRANCH   8  11
ATOM     11  C   LIG    1        2.163  -1.407  -0.116  0.00  0.00    +0.337 C 
ATOM     12  O   LIG    1        1.936  -2.039  -1.174  0.00  0.00    -0.248 OA
BRANCH  11  13
ATOM     13  O   LIG    1        2.877  -1.862   0.812  0.00  0.00    -0.479 OA
ATOM     14  H   LIG    1        3.019  -1.354   1.586  0.00  0.00    +0.295 HD
ENDBRANCH  11  13
ENDBRANCH   8  11
ENDBRANCH   1   8
TORSDOF 7
