REMARK  Name = DB13084
REMARK                            x       y       z     vdW  Elec       q    Type
REMARK                         _______ _______ _______ _____ _____    ______ ____
ROOT
ATOM      1  S   LIG    1        1.283   0.087   2.087  0.00  0.00    -0.092 S 
ENDROOT
BRANCH   1   2
ATOM      2  C   LIG    1        1.089   1.859   1.750  0.00  0.00    +0.091 C 
BRANCH   2   8
ATOM      3  C   LIG    1       -4.011   3.907   3.698  0.00  0.00    +0.033 C 
ATOM      4  C   LIG    1       -2.757   3.321   3.042  0.00  0.00    +0.070 C 
ATOM      5  N   LIG    1       -1.650   3.371   3.804  0.00  0.00    -0.302 NA
ATOM      6  H   LIG    1       -1.727   3.779   4.725  0.00  0.00    +0.123 HD
ATOM      7  C   LIG    1       -0.451   2.917   3.414  0.00  0.00    +0.080 C 
ATOM      8  C   LIG    1       -0.300   2.348   2.149  0.00  0.00    +0.017 C 
ATOM      9  C   LIG    1       -1.422   2.249   1.292  0.00  0.00    +0.047 C 
ATOM     10  C   LIG    1       -2.673   2.753   1.748  0.00  0.00    +0.125 C 
BRANCH  10  11
ATOM     11  O   LIG    1       -3.717   2.707   1.008  0.00  0.00    -0.383 OA
ATOM     12  H   LIG    1       -4.468   3.094   1.484  0.00  0.00    +0.210 HD
ENDBRANCH  10  11
BRANCH   9  13
ATOM     13  C   LIG    1       -1.253   1.601  -0.098  0.00  0.00    +0.167 C 
BRANCH  13  14
ATOM     14  O   LIG    1       -0.744   2.503  -1.059  0.00  0.00    -0.394 OA
ATOM     15  H   LIG    1       -0.820   2.098  -1.927  0.00  0.00    +0.209 HD
ENDBRANCH  13  14
ENDBRANCH   9  13
ENDBRANCH   2   8
ENDBRANCH   1   2
BRANCH   1  16
ATOM     16  S   LIG    1        2.974  -0.406   1.067  0.00  0.00    -0.092 S 
BRANCH  16  17
ATOM     17  C   LIG    1        2.382  -0.630  -0.633  0.00  0.00    +0.091 C 
BRANCH  17  18
ATOM     18  C   LIG    1        3.519  -1.030  -1.568  0.00  0.00    +0.017 C 
ATOM     19  C   LIG    1        3.897  -2.375  -1.789  0.00  0.00    +0.047 C 
ATOM     20  C   LIG    1        4.960  -2.645  -2.697  0.00  0.00    +0.125 C 
ATOM     21  C   LIG    1        5.611  -1.562  -3.336  0.00  0.00    +0.070 C 
ATOM     22  N   LIG    1        5.205  -0.308  -3.067  0.00  0.00    -0.302 NA
ATOM     23  H   LIG    1        5.682   0.453  -3.529  0.00  0.00    +0.123 HD
ATOM     24  C   LIG    1        6.772  -1.659  -4.330  0.00  0.00    +0.033 C 
ATOM     25  C   LIG    1        4.204  -0.009  -2.228  0.00  0.00    +0.080 C 
BRANCH  20  26
ATOM     26  O   LIG    1        5.331  -3.843  -2.948  0.00  0.00    -0.383 OA
ATOM     27  H   LIG    1        6.063  -3.828  -3.585  0.00  0.00    +0.210 HD
ENDBRANCH  20  26
BRANCH  19  28
ATOM     28  C   LIG    1        3.146  -3.498  -1.045  0.00  0.00    +0.167 C 
BRANCH  28  29
ATOM     29  O   LIG    1        1.948  -3.869  -1.695  0.00  0.00    -0.394 OA
ATOM     30  H   LIG    1        1.575  -4.627  -1.237  0.00  0.00    +0.209 HD
ENDBRANCH  28  29
ENDBRANCH  19  28
ENDBRANCH  17  18
ENDBRANCH  16  17
ENDBRANCH   1  16
TORSDOF 11
