REMARK  Name = DB13941
REMARK                            x       y       z     vdW  Elec       q    Type
REMARK                         _______ _______ _______ _____ _____    ______ ____
ROOT
ATOM      1  C   LIG    1        0.341   0.313   0.298  0.00  0.00    +0.031 C 
ENDROOT
BRANCH   1   2
ATOM      2  C   LIG    1        0.055   1.830   0.265  0.00  0.00    +0.086 C 
BRANCH   2   3
ATOM      3  N   LIG    1        0.740   2.541  -0.820  0.00  0.00    -0.299 NA
ATOM      4  C   LIG    1        0.505   3.979  -0.689  0.00  0.00    +0.103 C 
ATOM      5  C   LIG    1        1.290   4.755  -1.769  0.00  0.00    +0.120 C 
ATOM      6  N   LIG    1        0.940   4.351  -3.143  0.00  0.00    -0.327 N 
ATOM      7  C   LIG    1        1.013   2.883  -3.267  0.00  0.00    +0.120 C 
ATOM      8  C   LIG    1        0.263   2.127  -2.143  0.00  0.00    +0.103 C 
BRANCH   6   9
ATOM      9  C   LIG    1        1.195   5.207  -4.215  0.00  0.00    +0.040 A 
ATOM     10  C   LIG    1        0.665   6.546  -4.290  0.00  0.00    +0.021 A 
ATOM     11  C   LIG    1        1.066   7.371  -5.391  0.00  0.00    +0.074 A 
ATOM     12  N   LIG    1        1.902   6.926  -6.367  0.00  0.00    -0.255 NA
ATOM     13  C   LIG    1        2.353   5.656  -6.293  0.00  0.00    +0.113 A 
ATOM     14  C   LIG    1        0.578   8.697  -5.496  0.00  0.00    +0.048 A 
ATOM     15  C   LIG    1       -0.310   9.196  -4.549  0.00  0.00    +0.043 A 
ATOM     16 CL   LIG    1       -0.899  10.811  -4.692  0.00  0.00    -0.083 Cl
ATOM     17  C   LIG    1       -0.735   8.396  -3.494  0.00  0.00    +0.021 A 
ATOM     18  C   LIG    1       -0.269   7.091  -3.361  0.00  0.00    +0.013 A 
ATOM     19  C   LIG    1        2.030   4.785  -5.260  0.00  0.00    +0.043 A 
ENDBRANCH   6   9
ENDBRANCH   2   3
ENDBRANCH   1   2
BRANCH   1  20
ATOM     20  C   LIG    1        1.830  -0.065   0.469  0.00  0.00    +0.086 C 
BRANCH  20  21
ATOM     21  N   LIG    1        2.073  -1.497   0.272  0.00  0.00    -0.299 NA
ATOM     22  C   LIG    1        2.055  -1.861  -1.148  0.00  0.00    +0.103 C 
ATOM     23  C   LIG    1        2.242  -3.388  -1.308  0.00  0.00    +0.120 C 
ATOM     24  N   LIG    1        3.489  -3.895  -0.702  0.00  0.00    -0.327 N 
ATOM     25  C   LIG    1        3.623  -3.386   0.676  0.00  0.00    +0.120 C 
ATOM     26  C   LIG    1        3.388  -1.862   0.799  0.00  0.00    +0.103 C 
BRANCH  24  27
ATOM     27  C   LIG    1        4.002  -5.135  -1.088  0.00  0.00    +0.040 A 
ATOM     28  C   LIG    1        4.348  -5.447  -2.451  0.00  0.00    +0.021 A 
ATOM     29  C   LIG    1        4.781  -6.780  -2.751  0.00  0.00    +0.074 A 
ATOM     30  N   LIG    1        4.894  -7.740  -1.796  0.00  0.00    -0.255 NA
ATOM     31  C   LIG    1        4.597  -7.411  -0.520  0.00  0.00    +0.113 A 
ATOM     32  C   LIG    1        5.122  -7.130  -4.081  0.00  0.00    +0.048 A 
ATOM     33  C   LIG    1        5.061  -6.181  -5.095  0.00  0.00    +0.043 A 
ATOM     34 CL   LIG    1        5.481  -6.622  -6.710  0.00  0.00    -0.083 Cl
ATOM     35  C   LIG    1        4.675  -4.875  -4.814  0.00  0.00    +0.021 A 
ATOM     36  C   LIG    1        4.329  -4.501  -3.518  0.00  0.00    +0.013 A 
ATOM     37  C   LIG    1        4.161  -6.151  -0.135  0.00  0.00    +0.043 A 
ENDBRANCH  24  27
ENDBRANCH  20  21
ENDBRANCH   1  20
TORSDOF 6
