REMARK  Name = DB13120
REMARK                            x       y       z     vdW  Elec       q    Type
REMARK                         _______ _______ _______ _____ _____    ______ ____
ROOT
ATOM      1  C   LIG    1       -4.564   4.090   0.033  0.00  0.00    +0.051 A 
ATOM      2  C   LIG    1       -3.816   2.902  -0.134  0.00  0.00    +0.168 A 
ATOM      3  C   LIG    1       -2.418   2.911  -0.005  0.00  0.00    +0.162 A 
ATOM      4  C   LIG    1       -1.768   4.120   0.288  0.00  0.00    +0.049 A 
ATOM      5  C   LIG    1       -2.496   5.294   0.451  0.00  0.00    +0.004 A 
ATOM      6  C   LIG    1       -3.881   5.279   0.325  0.00  0.00    +0.014 A 
ENDROOT
BRANCH   1  10
ATOM      7  C   LIG    1       -8.696   2.438  -0.969  0.00  0.00    +0.049 C 
ATOM      8  C   LIG    1       -8.239   3.465   0.115  0.00  0.00    +0.165 C 
ATOM      9  N   LIG    1       -6.825   3.226   0.357  0.00  0.00    -0.258 NA
ATOM     10  C   LIG    1       -6.039   4.129  -0.076  0.00  0.00    +0.104 C 
ATOM     11  S   LIG    1       -6.819   5.532  -0.884  0.00  0.00    -0.103 S 
ATOM     12  C   LIG    1       -8.441   4.904  -0.440  0.00  0.00    +0.117 C 
BRANCH   8  13
ATOM     13  C   LIG    1       -8.987   3.272   1.490  0.00  0.00    +0.333 C 
ATOM     14  O   LIG    1       -9.695   2.252   1.669  0.00  0.00    -0.248 OA
BRANCH  13  15
ATOM     15  O   LIG    1       -8.832   4.139   2.385  0.00  0.00    -0.479 OA
ATOM     16  H   LIG    1       -8.297   4.890   2.222  0.00  0.00    +0.295 HD
ENDBRANCH  13  15
ENDBRANCH   8  13
ENDBRANCH   1  10
BRANCH   2  17
ATOM     17  O   LIG    1       -4.424   1.706  -0.444  0.00  0.00    -0.503 OA
ATOM     18  H   LIG    1       -3.843   0.955  -0.310  0.00  0.00    +0.292 HD
ENDBRANCH   2  17
BRANCH   3  19
ATOM     19  O   LIG    1       -1.753   1.708  -0.179  0.00  0.00    -0.486 OA
BRANCH  19  20
ATOM     20  C   LIG    1       -0.337   1.653  -0.036  0.00  0.00    +0.257 C 
BRANCH  20  21
ATOM     21  C   LIG    1        0.117   0.200  -0.219  0.00  0.00    +0.201 C 
BRANCH  21  22
ATOM     22  O   LIG    1        1.529   0.132  -0.081  0.00  0.00    -0.374 OA
BRANCH  22  23
ATOM     23  C   LIG    1        2.049  -1.186  -0.189  0.00  0.00    +0.188 C 
BRANCH  23  24
ATOM     24  C   LIG    1        3.574  -1.134  -0.041  0.00  0.00    +0.188 C 
BRANCH  24  25
ATOM     25  O   LIG    1        4.094  -2.455  -0.092  0.00  0.00    -0.375 OA
BRANCH  25  26
ATOM     26  C   LIG    1        5.510  -2.511   0.014  0.00  0.00    +0.188 C 
BRANCH  26  27
ATOM     27  C   LIG    1        5.962  -3.977  -0.020  0.00  0.00    +0.187 C 
BRANCH  27  28
ATOM     28  O   LIG    1        7.380  -4.024   0.052  0.00  0.00    -0.381 OA
ATOM     29  C   LIG    1        7.904  -5.343   0.032  0.00  0.00    +0.194 C 
ENDBRANCH  27  28
ENDBRANCH  26  27
ENDBRANCH  25  26
ENDBRANCH  24  25
ENDBRANCH  23  24
ENDBRANCH  22  23
ENDBRANCH  21  22
ENDBRANCH  20  21
ENDBRANCH  19  20
ENDBRANCH   3  19
TORSDOF 14
