REMARK  Name = DB13013
REMARK                            x       y       z     vdW  Elec       q    Type
REMARK                         _______ _______ _______ _____ _____    ______ ____
ROOT
ATOM      1  C   LIG    1      -13.627   1.593  -0.054  0.00  0.00    +0.054 C 
ATOM      2  C   LIG    1      -12.411   2.469   0.161  0.00  0.00    +0.019 A 
ATOM      3  C   LIG    1      -12.019   3.685  -0.422  0.00  0.00    +0.136 A 
ATOM      4  C   LIG    1      -12.819   4.454  -1.353  0.00  0.00    +0.264 C 
ATOM      5  N   LIG    1      -12.258   4.933  -2.486  0.00  0.00    -0.301 N 
ATOM      6  H   LIG    1      -12.884   5.451  -3.084  0.00  0.00    +0.150 HD
ATOM      7  C   LIG    1      -10.974   4.594  -3.124  0.00  0.00    +0.132 C 
ATOM      8  C   LIG    1      -10.580   5.657  -4.150  0.00  0.00    +0.100 A 
ATOM      9  N   LIG    1       -9.335   5.847  -4.502  0.00  0.00    -0.237 NA
ATOM     10  C   LIG    1       -9.175   6.803  -5.402  0.00  0.00    +0.138 A 
ATOM     11  C   LIG    1       -7.853   7.010  -5.950  0.00  0.00    +0.264 C 
ATOM     12  N   LIG    1       -6.806   7.149  -5.108  0.00  0.00    -0.301 N 
ATOM     13  H   LIG    1       -5.888   6.992  -5.499  0.00  0.00    +0.150 HD
ATOM     14  C   LIG    1       -6.808   7.589  -3.705  0.00  0.00    +0.200 C 
ATOM     15  C   LIG    1       -6.767   9.134  -3.610  0.00  0.00    +0.231 C 
ATOM     16  N   LIG    1       -6.528   9.723  -2.421  0.00  0.00    -0.302 N 
ATOM     17  H   LIG    1       -6.473  10.732  -2.425  0.00  0.00    +0.150 HD
ATOM     18  C   LIG    1       -6.306   9.105  -1.102  0.00  0.00    +0.161 C 
ATOM     19  C   LIG    1       -4.981   8.327  -1.005  0.00  0.00    +0.102 A 
ATOM     20  N   LIG    1       -4.819   7.321  -0.180  0.00  0.00    -0.240 NA
ATOM     21  C   LIG    1       -3.694   6.652  -0.343  0.00  0.00    +0.103 A 
ATOM     22  C   LIG    1       -3.495   5.412   0.387  0.00  0.00    +0.128 A 
ATOM     23  N   LIG    1       -3.072   4.316  -0.194  0.00  0.00    -0.236 NA
ATOM     24  C   LIG    1       -3.167   3.250   0.584  0.00  0.00    +0.098 A 
ATOM     25  C   LIG    1       -2.873   1.902   0.019  0.00  0.00    +0.100 A 
ATOM     26  C   LIG    1       -3.832   0.881  -0.159  0.00  0.00    +0.035 A 
ATOM     27  C   LIG    1       -5.286   0.997   0.198  0.00  0.00    +0.111 A 
ATOM     28  N   LIG    1       -5.734   1.494   1.324  0.00  0.00    -0.234 NA
ATOM     29  C   LIG    1       -7.053   1.474   1.412  0.00  0.00    +0.133 A 
ATOM     30  C   LIG    1       -7.636   1.938   2.639  0.00  0.00    +0.263 C 
ATOM     31  N   LIG    1       -8.470   2.999   2.643  0.00  0.00    -0.301 N 
ATOM     32  H   LIG    1       -8.810   3.229   3.565  0.00  0.00    +0.150 HD
ATOM     33  C   LIG    1       -8.994   3.924   1.622  0.00  0.00    +0.138 C 
ATOM     34  C   LIG    1      -10.283   3.472   0.926  0.00  0.00    +0.100 A 
ATOM     35  O   LIG    1       -7.349   1.377   3.696  0.00  0.00    -0.268 OA
ATOM     36  C   LIG    1       -7.715   0.922   0.316  0.00  0.00    +0.080 A 
ATOM     37  S   LIG    1       -6.542   0.443  -0.876  0.00  0.00    -0.075 S 
ATOM     38  C   LIG    1       -3.385  -0.323  -0.721  0.00  0.00    +0.015 A 
ATOM     39  C   LIG    1       -2.053  -0.480  -1.099  0.00  0.00    +0.031 A 
ATOM     40  C   LIG    1       -1.164   0.584  -0.914  0.00  0.00    +0.097 A 
ATOM     41  N   LIG    1       -1.576   1.758  -0.364  0.00  0.00    -0.242 NA
ATOM     42  C   LIG    1       -3.577   3.525   1.889  0.00  0.00    +0.077 A 
ATOM     43  S   LIG    1       -3.965   5.207   2.046  0.00  0.00    -0.073 S 
ATOM     44  C   LIG    1       -2.834   7.197  -1.293  0.00  0.00    +0.077 A 
ATOM     45  S   LIG    1       -3.571   8.605  -1.994  0.00  0.00    -0.078 S 
ATOM     46  O   LIG    1       -6.951   9.839  -4.603  0.00  0.00    -0.274 OA
ATOM     47  O   LIG    1       -7.684   6.976  -7.168  0.00  0.00    -0.268 OA
ATOM     48  C   LIG    1      -10.341   7.450  -5.838  0.00  0.00    +0.047 A 
ATOM     49  S   LIG    1      -11.669   6.752  -4.947  0.00  0.00    -0.072 S 
ATOM     50  O   LIG    1      -14.006   4.663  -1.111  0.00  0.00    -0.268 OA
ATOM     51  N   LIG    1      -10.886   4.206   0.022  0.00  0.00    -0.237 NA
ATOM     52  S   LIG    1      -11.170   2.030   1.305  0.00  0.00    -0.075 S 
ENDROOT
BRANCH  40  53
ATOM     53  C   LIG    1        0.289   0.516  -1.296  0.00  0.00    +0.129 A 
ATOM     54  N   LIG    1        1.182   1.428  -0.975  0.00  0.00    -0.222 NA
ATOM     55  C   LIG    1        2.389   1.136  -1.427  0.00  0.00    +0.138 A 
ATOM     56  C   LIG    1        2.501  -0.053  -2.146  0.00  0.00    +0.091 A 
ATOM     57  S   LIG    1        0.942  -0.811  -2.224  0.00  0.00    -0.072 S 
BRANCH  55  58
ATOM     58  N   LIG    1        3.437   2.006  -1.168  0.00  0.00    -0.221 N 
ATOM     59  C   LIG    1        3.801   2.905  -2.192  0.00  0.00    +0.409 C 
ATOM     60  O   LIG    1        3.274   2.976  -3.308  0.00  0.00    -0.226 OA
BRANCH  58  61
ATOM     61  C   LIG    1        4.137   1.983   0.136  0.00  0.00    +0.118 C 
BRANCH  61  62
ATOM     62  C   LIG    1        3.704   0.904   1.157  0.00  0.00    +0.020 C 
BRANCH  62  63
ATOM     63  C   LIG    1        4.498   0.952   2.476  0.00  0.00    +0.013 C 
BRANCH  63  64
ATOM     64  C   LIG    1        6.004   0.608   2.317  0.00  0.00    +0.120 C 
BRANCH  64  65
ATOM     65  C   LIG    1        6.780   0.447   3.647  0.00  0.00    +0.305 C 
ATOM     66  O   LIG    1        7.892  -0.123   3.572  0.00  0.00    -0.251 OA
BRANCH  65  67
ATOM     67  O   LIG    1        6.299   0.903   4.711  0.00  0.00    -0.481 OA
ATOM     68  H   LIG    1        5.460   1.320   4.704  0.00  0.00    +0.295 HD
ENDBRANCH  65  67
ENDBRANCH  64  65
ENDBRANCH  63  64
ENDBRANCH  62  63
ENDBRANCH  61  62
ENDBRANCH  58  61
BRANCH  59  69
ATOM     69  O   LIG    1        4.827   3.716  -1.802  0.00  0.00    -0.447 OA
BRANCH  69  70
ATOM     70  C   LIG    1        5.358   4.736  -2.646  0.00  0.00    +0.178 C 
ATOM     71  C   LIG    1        6.808   5.061  -2.205  0.00  0.00    +0.045 C 
ATOM     72  C   LIG    1        7.404   6.169  -3.101  0.00  0.00    +0.018 C 
ATOM     73  C   LIG    1        6.506   7.433  -3.002  0.00  0.00    +0.098 C 
ATOM     74  C   LIG    1        5.097   7.100  -3.553  0.00  0.00    +0.018 C 
ATOM     75  C   LIG    1        4.461   6.006  -2.667  0.00  0.00    +0.045 C 
BRANCH  73  76
ATOM     76  C   LIG    1        7.111   8.638  -3.774  0.00  0.00    +0.308 C 
ATOM     77  O   LIG    1        7.617   8.445  -4.905  0.00  0.00    -0.251 OA
BRANCH  76  78
ATOM     78  O   LIG    1        6.944   9.773  -3.272  0.00  0.00    -0.480 OA
ATOM     79  H   LIG    1        6.560   9.857  -2.422  0.00  0.00    +0.295 HD
ENDBRANCH  76  78
ENDBRANCH  73  76
ENDBRANCH  69  70
ENDBRANCH  59  69
ENDBRANCH  55  58
ENDBRANCH  40  53
BRANCH   7  80
ATOM     80  C   LIG    1      -10.973   3.142  -3.711  0.00  0.00    +0.010 C 
ATOM     81  C   LIG    1      -12.117   2.890  -4.718  0.00  0.00    +0.009 C 
ATOM     82  C   LIG    1       -9.625   2.706  -4.323  0.00  0.00    +0.009 C 
ENDBRANCH   7  80
BRANCH  18  83
ATOM     83  C   LIG    1       -7.545   8.346  -0.497  0.00  0.00    +0.171 C 
BRANCH  83  84
ATOM     84  C   LIG    1       -8.927   8.873  -0.894  0.00  0.00    -0.017 A 
ATOM     85  C   LIG    1       -9.228  10.235  -0.785  0.00  0.00    +0.006 A 
ATOM     86  C   LIG    1      -10.494  10.701  -1.130  0.00  0.00    +0.000 A 
ATOM     87  C   LIG    1      -11.462   9.802  -1.573  0.00  0.00    +0.000 A 
ATOM     88  C   LIG    1      -11.177   8.443  -1.670  0.00  0.00    +0.000 A 
ATOM     89  C   LIG    1       -9.909   7.978  -1.333  0.00  0.00    +0.006 A 
ENDBRANCH  83  84
BRANCH  83  90
ATOM     90  O   LIG    1       -7.428   8.290   0.914  0.00  0.00    -0.385 OA
ATOM     91  H   LIG    1       -6.534   8.013   1.133  0.00  0.00    +0.210 HD
ENDBRANCH  83  90
ENDBRANCH  18  83
BRANCH  33  92
ATOM     92  C   LIG    1       -7.955   4.721   0.769  0.00  0.00    +0.125 C 
BRANCH  92  93
ATOM     93  C   LIG    1       -7.521   4.162  -0.598  0.00  0.00    +0.215 C 
ATOM     94  N   LIG    1       -6.331   4.574  -1.057  0.00  0.00    -0.318 N 
ATOM     95  H   LIG    1       -5.767   5.181  -0.478  0.00  0.00    +0.148 HD
ATOM     96  C   LIG    1       -5.765   4.188  -2.342  0.00  0.00    +0.128 C 
ATOM     97  O   LIG    1       -8.251   3.406  -1.234  0.00  0.00    -0.276 OA
ENDBRANCH  92  93
ENDBRANCH  33  92
BRANCH  48  98
ATOM     98  C   LIG    1      -10.558   8.553  -6.853  0.00  0.00    +0.204 C 
BRANCH  98  99
ATOM     99  O   LIG    1      -11.089   7.987  -8.042  0.00  0.00    -0.378 OA
ATOM    100  C   LIG    1      -11.294   8.936  -9.078  0.00  0.00    +0.194 C 
ENDBRANCH  98  99
ENDBRANCH  48  98
TORSDOF 20
