REMARK  Name = DB13104
REMARK                            x       y       z     vdW  Elec       q    Type
REMARK                         _______ _______ _______ _____ _____    ______ ____
ROOT
ATOM      1  C   LIG    1        1.302  -0.127   0.188  0.00  0.00    +0.165 A 
ATOM      2  C   LIG    1        2.051  -1.295  -0.003  0.00  0.00    +0.181 A 
ATOM      3  N   LIG    1        3.381  -1.269  -0.272  0.00  0.00    -0.130 NA
ATOM      4  N   LIG    1        4.031  -0.098  -0.362  0.00  0.00    -0.143 NA
ATOM      5  C   LIG    1        3.367   1.081  -0.177  0.00  0.00    +0.152 A 
ATOM      6  C   LIG    1        1.995   1.091   0.107  0.00  0.00    +0.084 A 
ENDROOT
BRANCH   5   7
ATOM      7  C   LIG    1        4.141   2.381  -0.289  0.00  0.00    +0.268 C 
ATOM      8  N   LIG    1        5.461   2.264  -0.571  0.00  0.00    -0.280 N 
ATOM      9  H   LIG    1        5.794   1.326  -0.742  0.00  0.00    +0.155 HD
ATOM     10  O   LIG    1        3.557   3.456  -0.139  0.00  0.00    -0.268 OA
BRANCH   8  11
ATOM     11  C   LIG    1        6.440   3.265  -0.711  0.00  0.00    +0.034 A 
ATOM     12  C   LIG    1        6.292   4.590  -0.272  0.00  0.00    +0.024 A 
ATOM     13  C   LIG    1        7.327   5.503  -0.450  0.00  0.00    +0.015 A 
ATOM     14  C   LIG    1        8.521   5.117  -1.075  0.00  0.00    +0.037 A 
ATOM     15  C   LIG    1        8.674   3.785  -1.480  0.00  0.00    +0.015 A 
ATOM     16  C   LIG    1        7.641   2.869  -1.301  0.00  0.00    +0.024 A 
BRANCH  14  17
ATOM     17  C   LIG    1        9.669   6.090  -1.252  0.00  0.00    +0.246 C 
ATOM     18  N   LIG    1        9.405   7.401  -1.521  0.00  0.00    -0.301 N 
ATOM     19  C   LIG    1       10.485   8.404  -1.412  0.00  0.00    +0.089 C 
ATOM     20  C   LIG    1       10.985   8.757  -2.829  0.00  0.00    -0.060 C 
ATOM     21  N   LIG    1        9.803   9.302  -3.657  0.00  0.00    +0.380 N 
ATOM     22  H   LIG    1        9.435  10.118  -3.189  0.00  0.00    -0.082 HD
ATOM     23  C   LIG    1       10.270   9.693  -5.072  0.00  0.00    -0.096 C 
ATOM     24  C   LIG    1        8.691   8.235  -3.731  0.00  0.00    -0.060 C 
ATOM     25  C   LIG    1        8.227   7.834  -2.309  0.00  0.00    +0.089 C 
ATOM     26  O   LIG    1       10.821   5.666  -1.123  0.00  0.00    -0.270 OA
ENDBRANCH  14  17
ENDBRANCH   8  11
ENDBRANCH   5   7
BRANCH   2  27
ATOM     27  N   LIG    1        1.452  -2.553   0.069  0.00  0.00    -0.339 N 
ATOM     28  H   LIG    1        2.014  -3.379  -0.076  0.00  0.00    +0.144 HD
ATOM     29  H   LIG    1        0.462  -2.619   0.259  0.00  0.00    +0.144 HD
ENDBRANCH   2  27
BRANCH   1  30
ATOM     30  O   LIG    1       -0.053  -0.235   0.456  0.00  0.00    -0.481 OA
BRANCH  30  32
ATOM     31  C   LIG    1       -2.323   0.498   0.800  0.00  0.00    +0.057 C 
ATOM     32  C   LIG    1       -0.921   0.897   0.315  0.00  0.00    +0.204 C 
BRANCH  32  33
ATOM     33  C   LIG    1       -0.942   1.455  -1.126  0.00  0.00    +0.032 A 
ATOM     34  C   LIG    1       -1.089   0.600  -2.242  0.00  0.00    +0.084 A 
ATOM     35 CL   LIG    1       -1.284  -1.115  -2.071  0.00  0.00    -0.080 Cl
ATOM     36  C   LIG    1       -1.089   1.127  -3.538  0.00  0.00    +0.142 A 
ATOM     37  F   LIG    1       -1.225   0.313  -4.611  0.00  0.00    -0.204 F 
ATOM     38  C   LIG    1       -0.952   2.497  -3.740  0.00  0.00    +0.041 A 
ATOM     39  C   LIG    1       -0.822   3.350  -2.651  0.00  0.00    +0.023 A 
ATOM     40  C   LIG    1       -0.821   2.843  -1.351  0.00  0.00    +0.049 A 
ATOM     41 CL   LIG    1       -0.674   3.985  -0.057  0.00  0.00    -0.083 Cl
ENDBRANCH  32  33
ENDBRANCH  30  32
ENDBRANCH   1  30
TORSDOF 7
