REMARK  Name = DB14084
REMARK                            x       y       z     vdW  Elec       q    Type
REMARK                         _______ _______ _______ _____ _____    ______ ____
ROOT
ATOM      1  C   LIG    1       -1.982   1.389   0.000  0.00  0.00    +0.059 A 
ATOM      2  C   LIG    1       -2.735   2.572   0.000  0.00  0.00    +0.018 A 
ATOM      3  C   LIG    1       -4.127   2.526   0.000  0.00  0.00    +0.046 A 
ATOM      4  C   LIG    1       -4.778   1.295   0.000  0.00  0.00    +0.117 A 
ATOM      5  C   LIG    1       -4.046   0.110   0.000  0.00  0.00    +0.046 A 
ATOM      6  C   LIG    1       -2.654   0.156   0.000  0.00  0.00    +0.018 A 
ENDROOT
BRANCH   1   7
ATOM      7  C   LIG    1       -0.482   1.476   0.000  0.00  0.00    +0.339 C 
ATOM      8  O   LIG    1        0.135   2.545   0.000  0.00  0.00    -0.245 OA
BRANCH   7   9
ATOM      9  O   LIG    1        0.125   0.261   0.000  0.00  0.00    -0.461 OA
BRANCH   9  10
ATOM     10  C   LIG    1        1.542   0.148   0.000  0.00  0.00    +0.232 C 
BRANCH  10  11
ATOM     11  C   LIG    1        1.936  -1.336   0.000  0.00  0.00    +0.041 C 
BRANCH  11  12
ATOM     12  C   LIG    1        3.460  -1.542   0.000  0.00  0.00    -0.000 C 
ATOM     13  C   LIG    1        3.863  -3.023   0.000  0.00  0.00    +0.004 C 
ENDBRANCH  11  12
ENDBRANCH  10  11
ENDBRANCH   9  10
ENDBRANCH   7   9
ENDBRANCH   1   7
BRANCH   4  14
ATOM     14  O   LIG    1       -6.147   1.251   0.000  0.00  0.00    -0.507 OA
ATOM     15  H   LIG    1       -6.493   0.356   0.000  0.00  0.00    +0.292 HD
ENDBRANCH   4  14
TORSDOF 6
