REMARK  Name = DB14769
REMARK                            x       y       z     vdW  Elec       q    Type
REMARK                         _______ _______ _______ _____ _____    ______ ____
ROOT
ATOM      1  C   LIG    1       -0.262  -0.237   0.299  0.00  0.00    -0.003 C 
ATOM      2  C   LIG    1        1.245  -0.102   0.004  0.00  0.00    -0.026 C 
ATOM      3  C   LIG    1        1.947   0.635   1.149  0.00  0.00    +0.015 A 
ATOM      4  C   LIG    1        2.680   0.055   2.171  0.00  0.00    +0.024 A 
ATOM      5  C   LIG    1        3.158   1.085   3.010  0.00  0.00    +0.021 A 
ATOM      6  C   LIG    1        2.699   2.318   2.463  0.00  0.00    +0.051 A 
ATOM      7  C   LIG    1        3.001   3.545   3.058  0.00  0.00    +0.064 A 
ATOM      8  C   LIG    1        3.778   3.509   4.215  0.00  0.00    +0.126 A 
ATOM      9  C   LIG    1        4.234   2.306   4.754  0.00  0.00    +0.052 A 
ATOM     10  F   LIG    1        4.098   4.670   4.829  0.00  0.00    -0.205 F 
ATOM     11  C   LIG    1        3.939   1.063   4.166  0.00  0.00    +0.053 A 
ATOM     12  C   LIG    1        4.483  -0.190   4.825  0.00  0.00    +0.273 A 
ATOM     13  O   LIG    1        5.148  -0.094   5.857  0.00  0.00    -0.266 OA
ATOM     14  N   LIG    1        4.251  -1.422   4.289  0.00  0.00    -0.243 N 
ATOM     15  H   LIG    1        4.662  -2.192   4.798  0.00  0.00    +0.192 HD
ATOM     16  N   LIG    1        3.582  -1.960   3.205  0.00  0.00    -0.177 NA
ATOM     17  C   LIG    1        2.910  -1.377   2.285  0.00  0.00    +0.054 A 
ATOM     18  C   LIG    1        2.216  -2.221   1.195  0.00  0.00    -0.019 C 
ATOM     19  N   LIG    1        1.974   2.000   1.331  0.00  0.00    -0.358 N 
ATOM     20  H   LIG    1        1.510   2.639   0.702  0.00  0.00    +0.166 HD
ATOM     21  N   LIG    1        2.010  -1.444  -0.137  0.00  0.00    +0.391 N 
ATOM     22  H   LIG    1        1.426  -2.027  -0.720  0.00  0.00    -0.080 HD
ATOM     23  C   LIG    1        3.263  -1.156  -0.990  0.00  0.00    -0.077 C 
ATOM     24  C   LIG    1        2.916   0.101  -1.794  0.00  0.00    -0.019 C 
ATOM     25  C   LIG    1        1.496   0.505  -1.389  0.00  0.00    -0.008 C 
ENDROOT
TORSDOF 0
