REMARK  Name = DB14898
REMARK                            x       y       z     vdW  Elec       q    Type
REMARK                         _______ _______ _______ _____ _____    ______ ____
ROOT
ATOM      1  C   LIG    1        0.324  -4.681   2.065  0.00  0.00    +0.171 A 
ATOM      2  N   LIG    1       -0.586  -5.205   2.873  0.00  0.00    -0.217 NA
ATOM      3  C   LIG    1       -1.577  -4.349   2.930  0.00  0.00    +0.216 A 
ATOM      4  N   LIG    1       -1.369  -3.267   2.108  0.00  0.00    -0.321 N 
ATOM      5  C   LIG    1       -2.171  -2.056   1.936  0.00  0.00    +0.142 C 
ATOM      6  C   LIG    1       -1.845  -1.468   0.540  0.00  0.00    +0.130 C 
ATOM      7  N   LIG    1       -0.392  -1.198   0.499  0.00  0.00    -0.294 N 
ATOM      8  C   LIG    1        0.079   0.078   0.493  0.00  0.00    +0.214 C 
ATOM      9  O   LIG    1       -0.672   1.057   0.515  0.00  0.00    -0.276 OA
ATOM     10  C   LIG    1        0.494  -2.377   0.650  0.00  0.00    +0.163 C 
ATOM     11  C   LIG    1       -0.104  -3.433   1.582  0.00  0.00    +0.070 A 
ENDROOT
BRANCH   3  12
ATOM     12  C   LIG    1       -2.826  -4.541   3.777  0.00  0.00    +0.451 C 
ATOM     13  F   LIG    1       -3.891  -4.766   3.008  0.00  0.00    -0.163 F 
ATOM     14  F   LIG    1       -3.078  -3.463   4.519  0.00  0.00    -0.163 F 
ATOM     15  F   LIG    1       -2.708  -5.576   4.611  0.00  0.00    -0.163 F 
ENDBRANCH   3  12
BRANCH   1  16
ATOM     16  C   LIG    1        1.584  -5.376   1.777  0.00  0.00    +0.359 C 
ATOM     17  O   LIG    1        1.891  -6.461   2.278  0.00  0.00    -0.243 OA
BRANCH  16  19
ATOM     18  C   LIG    1        3.611  -5.192   0.483  0.00  0.00    +0.280 C 
ATOM     19  O   LIG    1        2.352  -4.685   0.902  0.00  0.00    -0.463 OA
ENDBRANCH  16  19
ENDBRANCH   1  16
BRANCH   8  20
ATOM     20  C   LIG    1        1.604   0.319   0.349  0.00  0.00    +0.080 C 
BRANCH  20  21
ATOM     21  C   LIG    1        2.068   1.768   0.008  0.00  0.00    -0.062 C 
BRANCH  21  22
ATOM     22  N   LIG    1        1.581   2.183  -1.397  0.00  0.00    +0.381 N 
ATOM     23  H   LIG    1        0.573   2.123  -1.444  0.00  0.00    -0.090 HD
ATOM     24  H   LIG    1        1.858   3.135  -1.592  0.00  0.00    -0.090 HD
ATOM     25  H   LIG    1        1.977   1.577  -2.101  0.00  0.00    -0.090 HD
ENDBRANCH  21  22
BRANCH  21  26
ATOM     26  C   LIG    1        3.609   1.933   0.108  0.00  0.00    +0.022 C 
BRANCH  26  27
ATOM     27  C   LIG    1        4.131   3.354  -0.111  0.00  0.00    -0.011 A 
ATOM     28  C   LIG    1        3.897   4.354   0.843  0.00  0.00    +0.129 A 
ATOM     29  F   LIG    1        3.203   4.077   1.970  0.00  0.00    -0.205 F 
ATOM     30  C   LIG    1        4.381   5.647   0.637  0.00  0.00    +0.080 A 
ATOM     31  C   LIG    1        5.103   5.949  -0.518  0.00  0.00    +0.161 A 
ATOM     32  F   LIG    1        5.569   7.204  -0.713  0.00  0.00    -0.202 F 
ATOM     33  C   LIG    1        5.342   4.956  -1.470  0.00  0.00    +0.159 A 
ATOM     34  F   LIG    1        6.042   5.245  -2.591  0.00  0.00    -0.202 F 
ATOM     35  C   LIG    1        4.859   3.663  -1.266  0.00  0.00    +0.047 A 
ENDBRANCH  26  27
ENDBRANCH  21  26
ENDBRANCH  20  21
ENDBRANCH   8  20
TORSDOF 8
