REMARK  Name = DB14481
REMARK                            x       y       z     vdW  Elec       q    Type
REMARK                         _______ _______ _______ _____ _____    ______ ____
ROOT
ATOM      1  P   LIG    1        1.809   0.011  -0.008  0.00  0.00    +0.470 P 
ATOM      2  O   LIG    1        2.218  -1.473   0.007  0.00  0.00    -0.228 OA
ENDROOT
BRANCH   1   3
ATOM      3  O   LIG    1        0.059   0.020   0.006  0.00  0.00    -0.303 OA
ATOM      4  H   LIG    1       -0.392   0.866  -0.000  0.00  0.00    +0.222 HD
ENDBRANCH   1   3
BRANCH   1   5
ATOM      5  O   LIG    1        2.235   0.768   1.263  0.00  0.00    -0.303 OA
ATOM      6  H   LIG    1        1.956   0.268   2.046  0.00  0.00    +0.222 HD
ENDBRANCH   1   5
BRANCH   1   7
ATOM      7  O   LIG    1        2.213   0.736  -1.305  0.00  0.00    -0.303 OA
ATOM      8  H   LIG    1        1.921   0.217  -2.070  0.00  0.00    +0.222 HD
ENDBRANCH   1   7
TORSDOF 3
