REMARK  Name = DB14094
REMARK                            x       y       z     vdW  Elec       q    Type
REMARK                         _______ _______ _______ _____ _____    ______ ____
ROOT
ATOM      1  C   LIG    1       -2.533   3.261   0.221  0.00  0.00    +0.064 C 
ATOM      2  C   LIG    1       -1.965   4.088   1.399  0.00  0.00    +0.041 C 
ENDROOT
BRANCH   1   3
ATOM      3  O   LIG    1       -2.099   3.954  -0.937  0.00  0.00    -0.389 OA
ATOM      4  H   LIG    1       -1.139   3.968  -0.939  0.00  0.00    +0.210 HD
ENDBRANCH   1   3
BRANCH   1   5
ATOM      5  C   LIG    1       -1.953   1.819   0.163  0.00  0.00    +0.034 C 
BRANCH   5   6
ATOM      6  C   LIG    1       -0.420   1.686   0.006  0.00  0.00    +0.003 C 
BRANCH   6   7
ATOM      7  C   LIG    1        0.043   0.216  -0.061  0.00  0.00    +0.003 C 
BRANCH   7   8
ATOM      8  C   LIG    1        1.580   0.016  -0.138  0.00  0.00    -0.014 C 
ATOM      9  C   LIG    1        2.184   0.641  -1.414  0.00  0.00    +0.007 C 
BRANCH   8  10
ATOM     10  C   LIG    1        1.989  -1.475  -0.027  0.00  0.00    +0.003 C 
BRANCH  10  11
ATOM     11  C   LIG    1        1.715  -2.127   1.344  0.00  0.00    +0.001 C 
BRANCH  11  12
ATOM     12  C   LIG    1        2.250  -3.571   1.439  0.00  0.00    +0.003 C 
BRANCH  12  13
ATOM     13  C   LIG    1        1.906  -4.309   2.758  0.00  0.00    -0.014 C 
ATOM     14  C   LIG    1        2.569  -3.646   3.986  0.00  0.00    +0.007 C 
BRANCH  13  15
ATOM     15  C   LIG    1        2.255  -5.815   2.648  0.00  0.00    +0.003 C 
BRANCH  15  16
ATOM     16  C   LIG    1        1.720  -6.690   3.800  0.00  0.00    +0.001 C 
BRANCH  16  17
ATOM     17  C   LIG    1        2.000  -8.192   3.590  0.00  0.00    +0.003 C 
BRANCH  17  18
ATOM     18  C   LIG    1        1.567  -9.100   4.767  0.00  0.00    -0.017 C 
ATOM     19  C   LIG    1        0.043  -9.091   4.999  0.00  0.00    +0.007 C 
ATOM     20  C   LIG    1        2.079 -10.538   4.572  0.00  0.00    +0.007 C 
ENDBRANCH  17  18
ENDBRANCH  16  17
ENDBRANCH  15  16
ENDBRANCH  13  15
ENDBRANCH  12  13
ENDBRANCH  11  12
ENDBRANCH  10  11
ENDBRANCH   8  10
ENDBRANCH   7   8
ENDBRANCH   6   7
ENDBRANCH   5   6
ENDBRANCH   1   5
BRANCH   1  21
ATOM     21  C   LIG    1       -4.087   3.232   0.198  0.00  0.00    +0.039 C 
BRANCH  21  22
ATOM     22  C   LIG    1       -4.809   4.600   0.142  0.00  0.00    +0.042 C 
BRANCH  22  23
ATOM     23  C   LIG    1       -6.329   4.486  -0.066  0.00  0.00    +0.006 C 
ATOM     24  C   LIG    1       -7.098   4.324   1.198  0.00  0.00    +0.186 C 
ATOM     25  C   LIG    1       -8.569   4.270   0.994  0.00  0.00    +0.003 C 
ATOM     26  C   LIG    1       -9.158   4.345  -0.234  0.00  0.00    +0.003 C 
ATOM     27  C   LIG    1       -8.392   4.507  -1.498  0.00  0.00    +0.185 C 
ATOM     28  O   LIG    1       -8.924   4.578  -2.609  0.00  0.00    -0.287 OA
ATOM     29  C   LIG    1      -10.679   4.346  -0.445  0.00  0.00    +0.048 C 
ATOM     30  C   LIG    1       -9.351   4.047   2.296  0.00  0.00    +0.048 C 
ATOM     31  O   LIG    1       -6.565   4.246   2.309  0.00  0.00    -0.287 OA
ATOM     32  C   LIG    1       -6.921   4.574  -1.293  0.00  0.00    +0.003 C 
ATOM     33  C   LIG    1       -6.134   4.679  -2.606  0.00  0.00    +0.048 C 
ENDBRANCH  22  23
ENDBRANCH  21  22
ENDBRANCH   1  21
TORSDOF 16
