REMARK  Name = DB14726
REMARK                            x       y       z     vdW  Elec       q    Type
REMARK                         _______ _______ _______ _____ _____    ______ ____
ROOT
ATOM      1  C   LIG    1        1.606  -0.109   0.539  0.00  0.00    +0.039 A 
ATOM      2  C   LIG    1        2.394  -0.893   1.397  0.00  0.00    +0.015 A 
ATOM      3  C   LIG    1        3.754  -1.121   1.180  0.00  0.00    +0.029 A 
ATOM      4  C   LIG    1        4.317  -0.535   0.043  0.00  0.00    +0.069 A 
ATOM      5  N   LIG    1        5.591  -0.521  -0.493  0.00  0.00    -0.329 N 
ATOM      6  C   LIG    1        6.746  -1.236   0.033  0.00  0.00    +0.150 C 
ATOM      7  C   LIG    1        5.508   0.187  -1.682  0.00  0.00    +0.128 A 
ATOM      8  N   LIG    1        4.314   0.687  -1.897  0.00  0.00    -0.231 NA
ATOM      9  C   LIG    1        3.550   0.242  -0.855  0.00  0.00    +0.090 A 
ATOM     10  C   LIG    1        2.187   0.452  -0.612  0.00  0.00    +0.043 A 
ENDROOT
BRANCH   1  12
ATOM     11  N   LIG    1       -0.516   1.220   0.451  0.00  0.00    -0.252 N 
ATOM     12  C   LIG    1        0.127   0.073   0.843  0.00  0.00    +0.252 C 
ATOM     13  O   LIG    1       -0.467  -0.862   1.390  0.00  0.00    -0.270 OA
BRANCH  11  14
ATOM     14  C   LIG    1        0.133   2.485   0.385  0.00  0.00    +0.128 A 
ATOM     15  C   LIG    1       -0.225   3.380  -0.636  0.00  0.00    +0.044 A 
ATOM     16  C   LIG    1        0.389   4.633  -0.690  0.00  0.00    +0.005 A 
ATOM     17  C   LIG    1        1.342   4.974   0.270  0.00  0.00    +0.020 A 
ATOM     18  C   LIG    1        1.650   4.043   1.260  0.00  0.00    +0.113 A 
ATOM     19  N   LIG    1        1.064   2.821   1.329  0.00  0.00    -0.240 NA
ENDBRANCH  11  14
BRANCH  11  20
ATOM     20  C   LIG    1       -1.999   1.216   0.487  0.00  0.00    +0.126 C 
BRANCH  20  21
ATOM     21  C   LIG    1       -2.680   1.664   1.809  0.00  0.00    +0.140 C 
BRANCH  21  22
ATOM     22  C   LIG    1       -2.397   3.099   2.265  0.00  0.00    +0.306 C 
ATOM     23  O   LIG    1       -1.740   3.381   3.265  0.00  0.00    -0.251 OA
BRANCH  22  24
ATOM     24  O   LIG    1       -2.973   4.008   1.427  0.00  0.00    -0.481 OA
ATOM     25  H   LIG    1       -2.802   4.912   1.701  0.00  0.00    +0.295 HD
ENDBRANCH  22  24
ENDBRANCH  21  22
ENDBRANCH  20  21
ENDBRANCH  11  20
ENDBRANCH   1  12
BRANCH   7  26
ATOM     26  C   LIG    1        6.681   0.376  -2.639  0.00  0.00    +0.176 C 
BRANCH  26  27
ATOM     27  N   LIG    1        6.335   0.256  -4.055  0.00  0.00    -0.337 N 
ATOM     28  H   LIG    1        6.638   0.994  -4.673  0.00  0.00    +0.147 HD
BRANCH  27  29
ATOM     29  C   LIG    1        5.911  -0.951  -4.640  0.00  0.00    +0.027 A 
ATOM     30  C   LIG    1        5.782  -2.147  -3.924  0.00  0.00    +0.024 A 
ATOM     31  C   LIG    1        5.348  -3.304  -4.565  0.00  0.00    +0.017 A 
ATOM     32  C   LIG    1        5.041  -3.301  -5.934  0.00  0.00    +0.065 A 
ATOM     33  C   LIG    1        5.178  -2.095  -6.640  0.00  0.00    +0.017 A 
ATOM     34  C   LIG    1        5.610  -0.937  -6.001  0.00  0.00    +0.024 A 
BRANCH  32  35
ATOM     35  C   LIG    1        4.577  -4.539  -6.600  0.00  0.00    +0.308 C 
ATOM     36  N   LIG    1        3.795  -5.330  -6.003  0.00  0.00    -0.099 NA
ATOM     37  H   LIG    1        3.559  -6.140  -6.558  0.00  0.00    +0.363 HD
BRANCH  35  38
ATOM     38  N   LIG    1        5.100  -4.703  -7.865  0.00  0.00    -0.247 N 
ATOM     39  H   LIG    1        5.739  -4.022  -8.248  0.00  0.00    +0.288 HD
ATOM     40  H   LIG    1        4.863  -5.515  -8.416  0.00  0.00    +0.288 HD
ENDBRANCH  35  38
ENDBRANCH  32  35
ENDBRANCH  27  29
ENDBRANCH  26  27
ENDBRANCH   7  26
TORSDOF 11
