REMARK  Name = DB14938
REMARK                            x       y       z     vdW  Elec       q    Type
REMARK                         _______ _______ _______ _____ _____    ______ ____
ROOT
ATOM      1  C   LIG    1        3.616  -0.599  -2.185  0.00  0.00    -0.031 A 
ATOM      2  C   LIG    1        3.943  -1.421  -1.102  0.00  0.00    +0.005 A 
ATOM      3  C   LIG    1        4.388  -2.725  -1.307  0.00  0.00    +0.011 A 
ATOM      4  C   LIG    1        4.522  -3.252  -2.599  0.00  0.00    +0.017 A 
ATOM      5  C   LIG    1        4.202  -2.420  -3.686  0.00  0.00    +0.131 A 
ATOM      6  F   LIG    1        4.343  -2.854  -4.961  0.00  0.00    -0.205 F 
ATOM      7  C   LIG    1        3.753  -1.115  -3.479  0.00  0.00    +0.043 A 
ENDROOT
BRANCH   4   8
ATOM      8  C   LIG    1        4.995  -4.659  -2.786  0.00  0.00    -0.015 A 
ATOM      9  C   LIG    1        4.422  -5.492  -3.758  0.00  0.00    +0.008 A 
ATOM     10  C   LIG    1        4.867  -6.801  -3.928  0.00  0.00    +0.001 A 
ATOM     11  C   LIG    1        5.891  -7.290  -3.123  0.00  0.00    +0.000 A 
ATOM     12  C   LIG    1        6.471  -6.482  -2.150  0.00  0.00    +0.001 A 
ATOM     13  C   LIG    1        6.023  -5.175  -1.983  0.00  0.00    +0.008 A 
ENDBRANCH   4   8
BRANCH   1  14
ATOM     14  C   LIG    1        3.114   0.830  -1.919  0.00  0.00    +0.125 C 
ATOM     15  C   LIG    1        3.275   1.817  -3.100  0.00  0.00    +0.024 C 
BRANCH  14  16
ATOM     16  C   LIG    1        1.658   0.739  -1.428  0.00  0.00    +0.317 C 
ATOM     17  O   LIG    1        0.707   0.750  -2.215  0.00  0.00    -0.250 OA
BRANCH  16  18
ATOM     18  O   LIG    1        1.589   0.655  -0.069  0.00  0.00    -0.425 OA
BRANCH  18  20
ATOM     19  C   LIG    1        0.104   1.222   1.657  0.00  0.00    +0.100 C 
ATOM     20  C   LIG    1        0.367   0.265   0.503  0.00  0.00    +0.367 C 
BRANCH  20  21
ATOM     21  O   LIG    1        0.443  -1.021   1.063  0.00  0.00    -0.425 OA
BRANCH  21  22
ATOM     22  C   LIG    1        0.237  -2.083   0.235  0.00  0.00    +0.307 C 
ATOM     23  O   LIG    1       -0.081  -2.050  -0.955  0.00  0.00    -0.251 OA
ATOM     24  C   LIG    1        0.445  -3.410   0.953  0.00  0.00    +0.136 C 
ENDBRANCH  21  22
ENDBRANCH  20  21
ENDBRANCH  18  20
ENDBRANCH  16  18
ENDBRANCH  14  16
ENDBRANCH   1  14
TORSDOF 7
