REMARK  Name = DB14911
REMARK                            x       y       z     vdW  Elec       q    Type
REMARK                         _______ _______ _______ _____ _____    ______ ____
ROOT
ATOM      1  N   UNK A  4       -0.060  -2.321   0.147  0.00  0.00    -0.301 N 
ATOM      2  H   UNK A  4        0.671  -2.786   0.664  0.00  0.00    +0.150 HD
ATOM      3  C   GLY A  3        0.264  -1.504  -0.870  0.00  0.00    +0.231 C 
ATOM      4  O   GLY A  3       -0.578  -0.913  -1.550  0.00  0.00    -0.274 OA
ENDROOT
BRANCH   1   5
ATOM      5  C   UNK A  4       -1.422  -2.525   0.643  0.00  0.00    +0.182 C 
BRANCH   5   8
ATOM      6  N   THR A  5       -2.824  -0.564   1.044  0.00  0.00    -0.300 N 
ATOM      7  H   THR A  5       -3.280  -0.827   0.182  0.00  0.00    +0.150 HD
ATOM      8  C   UNK A  4       -1.818  -1.317   1.512  0.00  0.00    +0.236 C 
ATOM      9  O   UNK A  4       -1.195  -1.088   2.549  0.00  0.00    -0.274 OA
BRANCH   6  10
ATOM     10  CA  THR A  5       -3.318   0.660   1.672  0.00  0.00    +0.187 C 
BRANCH  10  12
ATOM     11  N   PRO A  6       -5.464   0.061   2.784  0.00  0.00    -0.286 N 
ATOM     12  C   THR A  5       -4.868   0.597   1.686  0.00  0.00    +0.239 C 
ATOM     13  O   THR A  5       -5.502   0.974   0.699  0.00  0.00    -0.273 OA
ATOM     14  CD  PRO A  6       -4.766  -0.446   3.973  0.00  0.00    +0.109 C 
ATOM     15  CG  PRO A  6       -5.850  -0.949   4.921  0.00  0.00    +0.021 C 
ATOM     16  CB  PRO A  6       -7.023  -1.234   3.998  0.00  0.00    +0.035 C 
ATOM     17  CA  PRO A  6       -6.924  -0.181   2.869  0.00  0.00    +0.184 C 
BRANCH  17  18
ATOM     18  C   PRO A  6       -7.760   1.135   3.101  0.00  0.00    +0.325 C 
ATOM     19  O   PRO A  6       -7.693   1.648   4.243  0.00  0.00    -0.249 OA
BRANCH  18  20
ATOM     20  OXT PRO A  6       -8.381   1.539   2.091  0.00  0.00    -0.479 OA
ATOM     21  HXT PRO A  6       -8.343   1.052   1.292  0.00  0.00    +0.295 HD
ENDBRANCH  18  20
ENDBRANCH  17  18
ENDBRANCH  10  12
BRANCH  10  22
ATOM     22  CB  THR A  5       -2.804   1.932   0.927  0.00  0.00    +0.141 C 
ATOM     23  CG2 THR A  5       -1.274   2.079   0.989  0.00  0.00    +0.040 C 
BRANCH  22  24
ATOM     24  OG1 THR A  5       -3.188   1.992  -0.436  0.00  0.00    -0.390 OA
ATOM     25  HG1 THR A  5       -4.147   1.940  -0.476  0.00  0.00    +0.210 HD
ENDBRANCH  22  24
ENDBRANCH  10  22
ENDBRANCH   6  10
ENDBRANCH   5   8
BRANCH   5  26
ATOM     26  C   UNK A  4       -1.549  -3.861   1.411  0.00  0.00    +0.229 C 
BRANCH  26  27
ATOM     27  S   UNK A  4       -3.326  -4.511   1.543  0.00  0.00    +0.082 S 
ATOM     28  O   UNK A  4       -3.750  -4.648   0.145  0.00  0.00    -0.147 OA
ATOM     29  O   UNK A  4       -4.040  -3.476   2.298  0.00  0.00    -0.147 OA
BRANCH  27  30
ATOM     30  O   UNK A  4       -3.170  -5.782   2.257  0.00  0.00    -0.254 OA
ATOM     31  H   UNK A  4       -2.889  -5.608   3.169  0.00  0.00    +0.244 HD
ENDBRANCH  27  30
ENDBRANCH  26  27
ENDBRANCH   5  26
ENDBRANCH   1   5
BRANCH   3  32
ATOM     32  CA  GLY A  3        1.766  -1.353  -1.161  0.00  0.00    +0.200 C 
BRANCH  32  33
ATOM     33  N   GLY A  3        2.011  -0.166  -1.981  0.00  0.00    -0.305 N 
ATOM     34  H   GLY A  3        2.110  -0.319  -2.974  0.00  0.00    +0.149 HD
ATOM     35  C   ARG A  2        2.000   1.093  -1.512  0.00  0.00    +0.234 C 
ATOM     36  O   ARG A  2        1.895   1.396  -0.323  0.00  0.00    -0.274 OA
BRANCH  35  37
ATOM     37  CA  ARG A  2        2.130   2.204  -2.567  0.00  0.00    +0.159 C 
BRANCH  37  38
ATOM     38  N   ARG A  2        1.103   3.238  -2.392  0.00  0.00    -0.306 N 
ATOM     39  H   ARG A  2        1.438   4.135  -2.071  0.00  0.00    +0.149 HD
ATOM     40  C   GLY A  1       -0.216   3.061  -2.590  0.00  0.00    +0.196 C 
ATOM     41  O   GLY A  1       -0.694   1.985  -2.961  0.00  0.00    -0.278 OA
BRANCH  40  42
ATOM     42  CA  GLY A  1       -1.106   4.285  -2.302  0.00  0.00    +0.011 C 
BRANCH  42  43
ATOM     43  N   GLY A  1       -2.177   4.388  -3.330  0.00  0.00    +0.384 N 
ATOM     44  H1  GLY A  1       -1.790   4.539  -4.250  0.00  0.00    -0.089 HD
ATOM     45  H2  GLY A  1       -2.732   3.544  -3.352  0.00  0.00    -0.089 HD
ATOM     46  H3  GLY A  1       -2.800   5.157  -3.126  0.00  0.00    -0.089 HD
ENDBRANCH  42  43
ENDBRANCH  40  42
ENDBRANCH  37  38
BRANCH  37  47
ATOM     47  CB  ARG A  2        3.536   2.838  -2.512  0.00  0.00    +0.033 C 
BRANCH  47  48
ATOM     48  CG  ARG A  2        3.775   3.935  -3.571  0.00  0.00    +0.017 C 
BRANCH  48  49
ATOM     49  CD  ARG A  2        5.216   4.478  -3.595  0.00  0.00    +0.084 C 
BRANCH  49  50
ATOM     50  NE  ARG A  2        5.544   5.278  -2.400  0.00  0.00    -0.283 NA
ATOM     51  HE  ARG A  2        4.790   5.402  -1.739  0.00  0.00    +0.125 HD
BRANCH  50  52
ATOM     52  CZ  ARG A  2        6.732   5.842  -2.102  0.00  0.00    +0.167 C 
BRANCH  52  53
ATOM     53  NH2 ARG A  2        6.850   6.528  -0.957  0.00  0.00    -0.297 NA
ATOM     54 HH21 ARG A  2        7.731   6.957  -0.711  0.00  0.00    +0.121 HD
ATOM     55 HH22 ARG A  2        6.061   6.617  -0.333  0.00  0.00    +0.121 HD
ENDBRANCH  52  53
BRANCH  52  56
ATOM     56  NH1 ARG A  2        7.801   5.740  -2.910  0.00  0.00    -0.297 NA
ATOM     57 HH11 ARG A  2        7.732   5.229  -3.779  0.00  0.00    +0.121 HD
ATOM     58 HH12 ARG A  2        8.677   6.173  -2.653  0.00  0.00    +0.121 HD
ENDBRANCH  52  56
ENDBRANCH  50  52
ENDBRANCH  49  50
ENDBRANCH  48  49
ENDBRANCH  47  48
ENDBRANCH  37  47
ENDBRANCH  35  37
ENDBRANCH  32  33
ENDBRANCH   3  32
TORSDOF 24
