REMARK  Name = DB14141
REMARK                            x       y       z     vdW  Elec       q    Type
REMARK                         _______ _______ _______ _____ _____    ______ ____
ROOT
ATOM      1  C   LIG    1       -0.001   0.000   0.000  0.00  0.00    +0.025 A 
ATOM      2  C   LIG    1       -0.693  -1.211   0.000  0.00  0.00    +0.024 A 
ATOM      3  C   LIG    1       -2.086  -1.211   0.000  0.00  0.00    +0.024 A 
ATOM      4  C   LIG    1       -2.779   0.000   0.000  0.00  0.00    +0.025 A 
ATOM      5  C   LIG    1       -2.086   1.211   0.000  0.00  0.00    +0.024 A 
ATOM      6  C   LIG    1       -0.693   1.211   0.000  0.00  0.00    +0.024 A 
ENDROOT
BRANCH   1   7
ATOM      7  N   LIG    1        1.394   0.000   0.000  0.00  0.00    -0.358 N 
ATOM      8  H   LIG    1        1.891   0.879  -0.000  0.00  0.00    +0.142 HD
ATOM      9  H   LIG    1        1.891  -0.879   0.000  0.00  0.00    +0.142 HD
ENDBRANCH   1   7
BRANCH   4  10
ATOM     10  N   LIG    1       -4.173   0.000   0.000  0.00  0.00    -0.358 N 
ATOM     11  H   LIG    1       -4.671   0.879   0.000  0.00  0.00    +0.142 HD
ATOM     12  H   LIG    1       -4.670  -0.879   0.000  0.00  0.00    +0.142 HD
ENDBRANCH   4  10
TORSDOF 2
