REMARK  Name = DB14943
REMARK                            x       y       z     vdW  Elec       q    Type
REMARK                         _______ _______ _______ _____ _____    ______ ____
ROOT
ATOM      1  N   LIG    1        1.644   2.024   1.294  0.00  0.00    -0.279 N 
ATOM      2  H   LIG    1        0.663   1.854   1.462  0.00  0.00    +0.155 HD
ATOM      3  C   LIG    1        2.072   3.287   1.529  0.00  0.00    +0.267 C 
ATOM      4  O   LIG    1        3.222   3.677   1.319  0.00  0.00    -0.268 OA
ENDROOT
BRANCH   3   5
ATOM      5  C   LIG    1        1.023   4.241   2.067  0.00  0.00    +0.127 A 
ATOM      6  C   LIG    1        1.367   5.550   2.436  0.00  0.00    +0.036 A 
ATOM      7  C   LIG    1        0.376   6.399   2.929  0.00  0.00    +0.043 A 
ATOM      8  C   LIG    1       -0.937   5.939   3.039  0.00  0.00    +0.149 A 
ATOM      9  F   LIG    1       -1.897   6.755   3.534  0.00  0.00    -0.203 F 
ATOM     10  C   LIG    1       -1.229   4.625   2.645  0.00  0.00    +0.112 A 
ATOM     11  N   LIG    1       -0.263   3.794   2.172  0.00  0.00    -0.239 NA
BRANCH  10  12
ATOM     12  C   LIG    1       -2.601   4.043   2.708  0.00  0.00    +0.073 A 
ATOM     13  C   LIG    1       -3.684   4.688   2.085  0.00  0.00    +0.135 A 
ATOM     14  F   LIG    1       -3.498   5.838   1.395  0.00  0.00    -0.205 F 
ATOM     15  C   LIG    1       -4.968   4.144   2.145  0.00  0.00    +0.039 A 
ATOM     16  C   LIG    1       -5.192   2.950   2.826  0.00  0.00    +0.006 A 
ATOM     17  C   LIG    1       -4.130   2.298   3.446  0.00  0.00    +0.039 A 
ATOM     18  C   LIG    1       -2.845   2.837   3.389  0.00  0.00    +0.135 A 
ATOM     19  F   LIG    1       -1.837   2.181   4.011  0.00  0.00    -0.205 F 
ENDBRANCH  10  12
ENDBRANCH   3   5
BRANCH   1  25
ATOM     20  C   LIG    1        1.615  -0.083   0.083  0.00  0.00    -0.020 A 
ATOM     21  C   LIG    1        2.320  -1.202  -0.391  0.00  0.00    +0.025 A 
ATOM     22  C   LIG    1        3.700  -1.271  -0.206  0.00  0.00    +0.111 A 
ATOM     23  N   LIG    1        4.408  -0.308   0.430  0.00  0.00    -0.261 NA
ATOM     24  C   LIG    1        3.729   0.765   0.902  0.00  0.00    +0.134 A 
ATOM     25  C   LIG    1        2.342   0.929   0.752  0.00  0.00    +0.055 A 
BRANCH  20  29
ATOM     26  C   LIG    1       -2.921  -0.904   2.263  0.00  0.00    +0.007 C 
ATOM     27  C   LIG    1       -2.193  -0.368   1.018  0.00  0.00    -0.015 C 
ATOM     28  C   LIG    1       -0.662  -0.570   1.132  0.00  0.00    +0.011 C 
ATOM     29  C   LIG    1        0.084   0.010  -0.095  0.00  0.00    +0.020 C 
ATOM     30  C   LIG    1       -0.460  -0.593  -1.421  0.00  0.00    -0.008 C 
ATOM     31  C   LIG    1       -2.001  -0.452  -1.521  0.00  0.00    -0.074 C 
ATOM     32  C   LIG    1       -2.705  -1.039  -0.275  0.00  0.00    -0.013 C 
BRANCH  31  33
ATOM     33  N   LIG    1       -2.502  -1.180  -2.778  0.00  0.00    +0.380 N 
ATOM     34  H   LIG    1       -3.503  -1.080  -2.862  0.00  0.00    -0.090 HD
ATOM     35  H   LIG    1       -2.066  -0.790  -3.602  0.00  0.00    -0.090 HD
ATOM     36  H   LIG    1       -2.276  -2.163  -2.725  0.00  0.00    -0.090 HD
ENDBRANCH  31  33
ENDBRANCH  20  29
ENDBRANCH   1  25
TORSDOF 5
