REMARK  Name = DB14822
REMARK                            x       y       z     vdW  Elec       q    Type
REMARK                         _______ _______ _______ _____ _____    ______ ____
ROOT
ATOM      1  C   LIG    1        1.565  -0.372   0.065  0.00  0.00    +0.266 C 
ATOM      2  N   LIG    1        2.026  -0.513   1.347  0.00  0.00    -0.292 N 
ATOM      3  C   LIG    1        3.487  -0.708   1.569  0.00  0.00    +0.093 C 
ATOM      4  C   LIG    1        3.929   0.181   2.760  0.00  0.00    +0.024 C 
ATOM      5  C   LIG    1        3.051   0.041   4.011  0.00  0.00    +0.003 C 
ATOM      6  C   LIG    1        1.574   0.225   3.653  0.00  0.00    +0.019 C 
ATOM      7  C   LIG    1        1.126  -0.711   2.514  0.00  0.00    +0.108 C 
ATOM      8  O   LIG    1        2.292  -0.332  -0.930  0.00  0.00    -0.268 OA
ENDROOT
BRANCH   1  13
ATOM      9  C   LIG    1       -2.731  -2.472  -0.514  0.00  0.00    +0.073 C 
ATOM     10  C   LIG    1       -1.790  -1.298  -0.367  0.00  0.00    +0.077 A 
ATOM     11  S   LIG    1       -2.313   0.353  -0.326  0.00  0.00    -0.072 S 
ATOM     12  C   LIG    1       -0.650   0.875  -0.152  0.00  0.00    +0.051 A 
ATOM     13  C   LIG    1        0.142  -0.287  -0.131  0.00  0.00    +0.141 A 
ATOM     14  N   LIG    1       -0.496  -1.439  -0.252  0.00  0.00    -0.239 NA
BRANCH  12  15
ATOM     15  C   LIG    1       -0.321   2.339  -0.067  0.00  0.00    -0.009 A 
ATOM     16  C   LIG    1        0.739   2.787   0.730  0.00  0.00    +0.012 A 
ATOM     17  C   LIG    1        1.051   4.141   0.800  0.00  0.00    +0.039 A 
ATOM     18  C   LIG    1        0.305   5.060   0.068  0.00  0.00    +0.123 A 
ATOM     19  F   LIG    1        0.607   6.376   0.134  0.00  0.00    -0.205 F 
ATOM     20  C   LIG    1       -0.749   4.632  -0.735  0.00  0.00    +0.039 A 
ATOM     21  C   LIG    1       -1.059   3.276  -0.803  0.00  0.00    +0.012 A 
ENDBRANCH  12  15
ENDBRANCH   1  13
BRANCH   3  22
ATOM     22  C   LIG    1        3.934  -2.186   1.722  0.00  0.00    +0.127 C 
BRANCH  22  23
ATOM     23  N   LIG    1        3.627  -3.009   0.550  0.00  0.00    -0.310 N 
ATOM     24  H   LIG    1        4.301  -2.985  -0.201  0.00  0.00    +0.149 HD
ATOM     25  C   LIG    1        2.520  -3.763   0.392  0.00  0.00    +0.245 C 
ATOM     26  O   LIG    1        1.691  -3.933   1.287  0.00  0.00    -0.270 OA
BRANCH  25  27
ATOM     27  C   LIG    1        2.323  -4.403  -0.964  0.00  0.00    +0.047 A 
ATOM     28  C   LIG    1        1.520  -5.550  -1.170  0.00  0.00    +0.032 A 
ATOM     29  C   LIG    1        0.731  -6.424  -0.350  0.00  0.00    +0.050 A 
ATOM     30  C   LIG    1        0.189  -7.376  -1.197  0.00  0.00    +0.196 A 
ATOM     31  O   LIG    1        0.570  -7.179  -2.489  0.00  0.00    -0.463 OA
ATOM     32  C   LIG    1        1.375  -6.077  -2.478  0.00  0.00    +0.136 A 
ATOM     33  C   LIG    1        1.991  -5.516  -3.599  0.00  0.00    +0.047 A 
ATOM     34  C   LIG    1        2.773  -4.385  -3.383  0.00  0.00    +0.004 A 
ATOM     35  C   LIG    1        2.932  -3.845  -2.107  0.00  0.00    +0.014 A 
ENDBRANCH  25  27
ENDBRANCH  22  23
ENDBRANCH   3  22
TORSDOF 5
