REMARK  Name = DB14569
REMARK                            x       y       z     vdW  Elec       q    Type
REMARK                         _______ _______ _______ _____ _____    ______ ____
ROOT
ATOM      1  C   LIG    1       -0.630  -1.259   0.475  0.00  0.00    +0.062 A 
ATOM      2  C   LIG    1       -2.025  -1.248   0.435  0.00  0.00    +0.133 A 
ATOM      3  F   LIG    1       -2.693  -2.370   0.793  0.00  0.00    -0.205 F 
ATOM      4  C   LIG    1       -2.721  -0.095   0.042  0.00  0.00    +0.019 A 
ATOM      5  C   LIG    1       -1.980   1.040  -0.305  0.00  0.00    +0.013 A 
ATOM      6  C   LIG    1       -0.587   1.030  -0.266  0.00  0.00    +0.024 A 
ATOM      7  C   LIG    1        0.113  -0.117   0.133  0.00  0.00    +0.042 A 
ENDROOT
BRANCH   4   8
ATOM      8  C   LIG    1       -4.210  -0.057  -0.015  0.00  0.00    +0.003 A 
ATOM      9  C   LIG    1       -4.931   1.020   0.519  0.00  0.00    +0.012 A 
ATOM     10  C   LIG    1       -6.324   1.042   0.444  0.00  0.00    +0.032 A 
ATOM     11  C   LIG    1       -6.988  -0.024  -0.177  0.00  0.00    +0.111 A 
ATOM     12  N   LIG    1       -6.305  -1.078  -0.703  0.00  0.00    -0.251 NA
ATOM     13  C   LIG    1       -4.950  -1.082  -0.617  0.00  0.00    +0.120 A 
BRANCH  11  14
ATOM     14  C   LIG    1       -8.485  -0.064  -0.302  0.00  0.00    +0.223 A 
ATOM     15  N   LIG    1       -9.142  -1.040  -0.905  0.00  0.00    -0.129 NA
ATOM     16  N   LIG    1      -10.407  -0.624  -0.791  0.00  0.00    -0.166 N 
ATOM     17  C   LIG    1      -11.533  -1.435  -1.221  0.00  0.00    +0.199 C 
ATOM     18  N   LIG    1      -10.562   0.509  -0.109  0.00  0.00    -0.046 NA
ATOM     19  N   LIG    1       -9.269   0.885   0.191  0.00  0.00    -0.106 NA
ENDBRANCH  11  14
ENDBRANCH   4   8
BRANCH   7  20
ATOM     20  N   LIG    1        1.532  -0.100   0.150  0.00  0.00    -0.234 N 
ATOM     21  C   LIG    1        2.351   0.961  -0.417  0.00  0.00    +0.164 C 
ATOM     22  C   LIG    1        3.776   0.484  -0.257  0.00  0.00    +0.221 C 
ATOM     23  O   LIG    1        3.638  -0.496   0.748  0.00  0.00    -0.443 OA
ATOM     24  C   LIG    1        2.366  -0.920   0.928  0.00  0.00    +0.408 C 
ATOM     25  O   LIG    1        2.109  -1.875   1.660  0.00  0.00    -0.226 OA
BRANCH  22  26
ATOM     26  C   LIG    1        4.367  -0.171  -1.525  0.00  0.00    +0.202 C 
BRANCH  26  27
ATOM     27  O   LIG    1        5.706  -0.568  -1.307  0.00  0.00    -0.391 OA
ATOM     28  H   LIG    1        6.039  -0.977  -2.109  0.00  0.00    +0.210 HD
ENDBRANCH  26  27
ENDBRANCH  22  26
ENDBRANCH   7  20
TORSDOF 5
