REMARK  Name = DB14186
REMARK                            x       y       z     vdW  Elec       q    Type
REMARK                         _______ _______ _______ _____ _____    ______ ____
ROOT
ATOM      1  C   LIG    1       -4.268   2.370   0.059  0.00  0.00    +0.001 A 
ATOM      2  C   LIG    1       -5.008   1.202  -0.098  0.00  0.00    +0.000 A 
ATOM      3  C   LIG    1       -4.373  -0.036  -0.147  0.00  0.00    +0.001 A 
ATOM      4  C   LIG    1       -2.986  -0.106  -0.039  0.00  0.00    +0.008 A 
ATOM      5  C   LIG    1       -2.228   1.063   0.122  0.00  0.00    -0.025 A 
ATOM      6  C   LIG    1       -2.882   2.299   0.169  0.00  0.00    +0.008 A 
ENDROOT
BRANCH   5   7
ATOM      7  C   LIG    1       -0.754   1.042   0.233  0.00  0.00    +0.006 C 
ATOM      8  C   LIG    1        0.061  -0.002  -0.032  0.00  0.00    +0.001 C 
BRANCH   8   9
ATOM      9  C   LIG    1        1.580  -0.042   0.089  0.00  0.00    +0.183 C 
BRANCH   9  10
ATOM     10  O   LIG    1        2.112   1.191   0.536  0.00  0.00    -0.391 OA
ATOM     11  H   LIG    1        3.067   1.108   0.595  0.00  0.00    +0.210 HD
ENDBRANCH   9  10
ENDBRANCH   8   9
ENDBRANCH   5   7
TORSDOF 3
