REMARK  Name = DB14961
REMARK                            x       y       z     vdW  Elec       q    Type
REMARK                         _______ _______ _______ _____ _____    ______ ____
ROOT
ATOM      1  N   LIG    1        1.545  -0.607  -0.513  0.00  0.00    -0.299 N 
ATOM      2  C   LIG    1        2.447   0.054   0.429  0.00  0.00    +0.113 C 
ATOM      3  C   LIG    1        3.893  -0.318   0.072  0.00  0.00    +0.030 C 
ATOM      4  C   LIG    1        4.459  -1.461   0.930  0.00  0.00    +0.113 C 
ATOM      5  N   LIG    1        4.213  -2.663   0.132  0.00  0.00    -0.297 N 
ATOM      6  C   LIG    1        3.382  -3.638   0.587  0.00  0.00    +0.252 C 
ATOM      7  O   LIG    1        2.998  -3.713   1.755  0.00  0.00    -0.270 OA
ATOM      8  C   LIG    1        4.330  -2.302  -1.284  0.00  0.00    +0.113 C 
ATOM      9  C   LIG    1        3.817  -0.856  -1.349  0.00  0.00    +0.030 C 
ATOM     10  C   LIG    1        2.336  -0.755  -1.732  0.00  0.00    +0.113 C 
ENDROOT
BRANCH   1  14
ATOM     11  C   LIG    1       -2.394   0.054   2.157  0.00  0.00    +0.066 C 
ATOM     12  C   LIG    1       -1.779  -0.369   0.837  0.00  0.00    +0.044 A 
ATOM     13  N   LIG    1       -0.426  -0.272   0.751  0.00  0.00    -0.220 NA
ATOM     14  C   LIG    1        0.145  -0.643  -0.429  0.00  0.00    +0.218 A 
ATOM     15  N   LIG    1       -0.539  -1.117  -1.508  0.00  0.00    -0.220 NA
ATOM     16  C   LIG    1       -1.890  -1.205  -1.388  0.00  0.00    +0.044 A 
ATOM     17  C   LIG    1       -2.630  -1.734  -2.602  0.00  0.00    +0.066 C 
ATOM     18  C   LIG    1       -2.565  -0.836  -0.221  0.00  0.00    +0.046 A 
ENDBRANCH   1  14
BRANCH   6  19
ATOM     19  C   LIG    1        2.930  -4.695  -0.396  0.00  0.00    +0.099 A 
ATOM     20  C   LIG    1        3.832  -5.611  -0.994  0.00  0.00    +0.101 A 
ATOM     21  C   LIG    1        3.364  -6.518  -1.953  0.00  0.00    +0.030 A 
ATOM     22  C   LIG    1        2.020  -6.535  -2.317  0.00  0.00    +0.005 A 
ATOM     23  C   LIG    1        1.129  -5.644  -1.727  0.00  0.00    +0.039 A 
ATOM     24  C   LIG    1        1.576  -4.728  -0.776  0.00  0.00    +0.138 A 
ATOM     25  F   LIG    1        0.678  -3.869  -0.236  0.00  0.00    -0.205 F 
BRANCH  20  26
ATOM     26  N   LIG    1        5.208  -5.658  -0.666  0.00  0.00    -0.149 N 
ATOM     27  N   LIG    1        5.645  -5.835   0.593  0.00  0.00    -0.156 NA
ATOM     28  C   LIG    1        6.946  -5.832   0.448  0.00  0.00    +0.156 A 
ATOM     29  C   LIG    1        7.266  -5.668  -0.900  0.00  0.00    +0.156 A 
ATOM     30  N   LIG    1        6.167  -5.567  -1.604  0.00  0.00    -0.156 NA
ENDBRANCH  20  26
ENDBRANCH   6  19
TORSDOF 3
