REMARK  Name = DB14934
REMARK                            x       y       z     vdW  Elec       q    Type
REMARK                         _______ _______ _______ _____ _____    ______ ____
ROOT
ATOM      1  C   LIG    1       -1.952  -1.011   3.382  0.00  0.00    +0.045 C 
ATOM      2  C   LIG    1       -1.375  -0.410   2.098  0.00  0.00    -0.032 C 
ATOM      3  C   LIG    1       -1.422   1.066   1.969  0.00  0.00    +0.023 A 
ATOM      4  C   LIG    1       -1.774   1.924   3.023  0.00  0.00    +0.057 A 
ATOM      5  C   LIG    1       -1.769   3.310   2.846  0.00  0.00    +0.118 A 
ATOM      6  C   LIG    1       -1.415   3.856   1.612  0.00  0.00    +0.049 A 
ATOM      7  C   LIG    1       -1.065   3.019   0.554  0.00  0.00    +0.050 A 
ATOM      8  C   LIG    1       -1.062   1.637   0.740  0.00  0.00    +0.129 A 
ATOM      9  O   LIG    1       -0.745   0.858  -0.354  0.00  0.00    -0.479 OA
ATOM     10  C   LIG    1       -0.162  -0.436  -0.097  0.00  0.00    +0.235 C 
ATOM     11  C   LIG    1       -0.759  -1.140   1.134  0.00  0.00    +0.008 C 
ENDROOT
BRANCH  10  12
ATOM     12  C   LIG    1        1.368  -0.387  -0.104  0.00  0.00    -0.003 A 
ATOM     13  C   LIG    1        2.088  -1.193  -0.990  0.00  0.00    +0.011 A 
ATOM     14  C   LIG    1        3.480  -1.161  -0.996  0.00  0.00    +0.046 A 
ATOM     15  C   LIG    1        4.171  -0.315  -0.114  0.00  0.00    +0.120 A 
ATOM     16  C   LIG    1        3.446   0.488   0.767  0.00  0.00    +0.046 A 
ATOM     17  C   LIG    1        2.055   0.453   0.776  0.00  0.00    +0.011 A 
BRANCH  15  18
ATOM     18  O   LIG    1        5.547  -0.215  -0.048  0.00  0.00    -0.494 OA
BRANCH  18  19
ATOM     19  C   LIG    1        6.351  -1.015  -0.913  0.00  0.00    +0.210 C 
BRANCH  19  20
ATOM     20  C   LIG    1        7.841  -0.709  -0.684  0.00  0.00    -0.037 C 
BRANCH  20  21
ATOM     21  N   LIG    1        8.113   0.803  -0.814  0.00  0.00    +0.382 N 
ATOM     22  H   LIG    1        7.530   1.303  -0.157  0.00  0.00    -0.082 HD
ATOM     23  C   LIG    1        9.566   1.277  -0.720  0.00  0.00    -0.075 C 
ATOM     24  C   LIG    1        9.350   2.167  -1.953  0.00  0.00    -0.013 C 
ATOM     25  C   LIG    1        8.026   1.432  -2.208  0.00  0.00    -0.075 C 
BRANCH  24  26
ATOM     26  C   LIG    1       10.405   2.024  -3.063  0.00  0.00    +0.213 C 
ATOM     27  F   LIG    1       10.051   2.626  -4.197  0.00  0.00    -0.249 F 
ENDBRANCH  24  26
ENDBRANCH  20  21
ENDBRANCH  19  20
ENDBRANCH  18  19
ENDBRANCH  15  18
ENDBRANCH  10  12
BRANCH  11  28
ATOM     28  C   LIG    1       -0.528  -2.598   1.249  0.00  0.00    -0.014 A 
ATOM     29  C   LIG    1       -1.082  -3.475   0.310  0.00  0.00    +0.008 A 
ATOM     30  C   LIG    1       -0.842  -4.847   0.393  0.00  0.00    +0.004 A 
ATOM     31  C   LIG    1       -0.038  -5.354   1.413  0.00  0.00    +0.045 A 
ATOM     32  C   LIG    1        0.529  -4.488   2.348  0.00  0.00    +0.117 A 
ATOM     33  C   LIG    1        0.289  -3.116   2.262  0.00  0.00    +0.053 A 
BRANCH  32  34
ATOM     34  O   LIG    1        1.323  -4.983   3.348  0.00  0.00    -0.507 OA
ATOM     35  H   LIG    1        1.416  -5.937   3.313  0.00  0.00    +0.292 HD
ENDBRANCH  32  34
ENDBRANCH  11  28
BRANCH   5  36
ATOM     36  O   LIG    1       -2.110   4.133   3.886  0.00  0.00    -0.507 OA
ATOM     37  H   LIG    1       -2.071   5.064   3.654  0.00  0.00    +0.292 HD
ENDBRANCH   5  36
TORSDOF 9
