REMARK  Name = DB14187
REMARK                            x       y       z     vdW  Elec       q    Type
REMARK                         _______ _______ _______ _____ _____    ______ ____
ROOT
ATOM      1  C   LIG    1        1.530   0.041  -0.124  0.00  0.00    +0.003 C 
ENDROOT
BRANCH   1   2
ATOM      2  C   LIG    1        2.074  -1.403  -0.159  0.00  0.00    +0.004 C 
BRANCH   2   3
ATOM      3  C   LIG    1        3.616  -1.520  -0.070  0.00  0.00    -0.007 C 
ATOM      4  C   LIG    1        4.025  -2.996   0.138  0.00  0.00    +0.008 C 
BRANCH   3   5
ATOM      5  C   LIG    1        4.317  -0.868  -1.292  0.00  0.00    +0.074 C 
BRANCH   5   6
ATOM      6  C   LIG    1        5.845  -0.837  -1.202  0.00  0.00    +0.223 C 
ATOM      7  O   LIG    1        6.447   0.223  -1.045  0.00  0.00    -0.301 OA
ENDBRANCH   5   6
ENDBRANCH   3   5
ENDBRANCH   2   3
ENDBRANCH   1   2
BRANCH   1   8
ATOM      8  C   LIG    1       -0.015   0.096  -0.080  0.00  0.00    +0.034 C 
BRANCH   8   9
ATOM      9  C   LIG    1       -0.658   1.508  -0.001  0.00  0.00    +0.061 C 
ATOM     10  C   LIG    1       -2.187   1.412   0.168  0.00  0.00    +0.041 C 
ATOM     11  C   LIG    1       -0.276   2.399  -1.203  0.00  0.00    +0.041 C 
BRANCH   9  12
ATOM     12  O   LIG    1       -0.153   2.167   1.146  0.00  0.00    -0.389 OA
ATOM     13  H   LIG    1       -0.545   3.042   1.192  0.00  0.00    +0.210 HD
ENDBRANCH   9  12
ENDBRANCH   8   9
ENDBRANCH   1   8
TORSDOF 7
