REMARK  Name = DB14805
REMARK                            x       y       z     vdW  Elec       q    Type
REMARK                         _______ _______ _______ _____ _____    ______ ____
ROOT
ATOM      1  C   UNK A  1        1.441   0.112   0.099  0.00  0.00    +0.183 C 
ENDROOT
BRANCH   1   5
ATOM      2  N   UNK A  1       -2.057   1.044  -0.234  0.00  0.00    -0.286 N 
ATOM      3  H   UNK A  1       -2.350   0.085  -0.344  0.00  0.00    +0.151 HD
ATOM      4  C   UNK A  0       -0.750   1.309  -0.075  0.00  0.00    +0.301 C 
ATOM      5  N   UNK A  1       -0.020   0.182  -0.039  0.00  0.00    -0.286 N 
ATOM      6  H   UNK A  1       -0.489  -0.706  -0.141  0.00  0.00    +0.151 HD
ATOM      7  O   UNK A  0       -0.280   2.444   0.031  0.00  0.00    -0.253 OA
BRANCH   2   8
ATOM      8  C   UNK A  1       -3.140   2.037  -0.237  0.00  0.00    +0.183 C 
BRANCH   8   9
ATOM      9  C   UNK A  1       -3.358   2.667   1.160  0.00  0.00    +0.325 C 
ATOM     10  O   UNK A  1       -3.063   2.129   2.209  0.00  0.00    -0.249 OA
BRANCH   9  11
ATOM     11  O   UNK A  1       -3.906   3.910   1.026  0.00  0.00    -0.479 OA
ATOM     12  H   UNK A  1       -4.042   4.341   1.873  0.00  0.00    +0.295 HD
ENDBRANCH   9  11
ENDBRANCH   8   9
BRANCH   8  13
ATOM     13  C   UNK A  1       -4.415   1.359  -0.805  0.00  0.00    +0.045 C 
BRANCH  13  14
ATOM     14  C   UNK A  1       -5.606   2.304  -1.072  0.00  0.00    +0.123 C 
BRANCH  14  15
ATOM     15  C   UNK A  1       -6.752   1.585  -1.782  0.00  0.00    +0.305 C 
ATOM     16  O   UNK A  1       -6.955   1.650  -2.992  0.00  0.00    -0.251 OA
BRANCH  15  17
ATOM     17  O   UNK A  1       -7.518   0.858  -0.919  0.00  0.00    -0.481 OA
ATOM     18  H   UNK A  1       -8.238   0.402  -1.360  0.00  0.00    +0.295 HD
ENDBRANCH  15  17
ENDBRANCH  14  15
ENDBRANCH  13  14
ENDBRANCH   8  13
ENDBRANCH   2   8
ENDBRANCH   1   5
BRANCH   1  19
ATOM     19  C   UNK A  1        2.174   0.528  -1.199  0.00  0.00    +0.325 C 
ATOM     20  O   UNK A  1        1.645   0.637  -2.287  0.00  0.00    -0.249 OA
BRANCH  19  21
ATOM     21  O   UNK A  1        3.492   0.762  -0.925  0.00  0.00    -0.479 OA
ATOM     22  H   UNK A  1        3.983   1.033  -1.704  0.00  0.00    +0.295 HD
ENDBRANCH  19  21
ENDBRANCH   1  19
BRANCH   1  23
ATOM     23  C   UNK A  1        1.906  -1.287   0.583  0.00  0.00    +0.034 C 
BRANCH  23  24
ATOM     24  C   UNK A  1        1.288  -1.719   1.930  0.00  0.00    +0.004 C 
BRANCH  24  25
ATOM     25  C   UNK A  1        1.846  -3.059   2.442  0.00  0.00    +0.019 C 
BRANCH  25  26
ATOM     26  C   UNK A  1        1.231  -3.487   3.789  0.00  0.00    +0.104 C 
BRANCH  26  27
ATOM     27  N   UNK A  1        1.726  -4.772   4.282  0.00  0.00    -0.311 N 
ATOM     28  H   UNK A  1        1.106  -5.561   4.174  0.00  0.00    +0.149 HD
ATOM     29  C   UNK A  1        2.925  -4.968   4.867  0.00  0.00    +0.246 C 
ATOM     30  O   UNK A  1        3.736  -4.056   5.044  0.00  0.00    -0.270 OA
BRANCH  29  31
ATOM     31  C   UNK A  1        3.240  -6.379   5.316  0.00  0.00    +0.055 A 
ATOM     32  C   UNK A  1        4.426  -6.656   6.014  0.00  0.00    +0.127 A 
ATOM     33  N   UNK A  1        4.771  -7.896   6.445  0.00  0.00    -0.227 NA
ATOM     34  C   UNK A  1        3.925  -8.924   6.187  0.00  0.00    +0.213 A 
ATOM     35  F   UNK A  1        4.258 -10.164   6.611  0.00  0.00    -0.184 F 
ATOM     36  C   UNK A  1        2.724  -8.745   5.499  0.00  0.00    +0.060 A 
ATOM     37  C   UNK A  1        2.382  -7.464   5.061  0.00  0.00    +0.019 A 
ENDBRANCH  29  31
ENDBRANCH  26  27
ENDBRANCH  25  26
ENDBRANCH  24  25
ENDBRANCH  23  24
ENDBRANCH   1  23
TORSDOF 16
