REMARK  Name = DB14808
REMARK                            x       y       z     vdW  Elec       q    Type
REMARK                         _______ _______ _______ _____ _____    ______ ____
ROOT
ATOM      1  C   LIG    1        1.401   0.341   0.779  0.00  0.00    +0.159 C 
ATOM      2  C   LIG    1        2.182  -0.362   1.899  0.00  0.00    +0.251 C 
ATOM      3  C   LIG    1        3.613   0.179   1.810  0.00  0.00    +0.259 C 
ATOM      4  F   LIG    1        4.373  -0.588   1.023  0.00  0.00    -0.237 F 
ATOM      5  C   LIG    1        3.387   1.538   1.125  0.00  0.00    +0.262 C 
ATOM      6  O   LIG    1        1.998   1.625   0.923  0.00  0.00    -0.339 OA
ENDROOT
BRANCH   5   7
ATOM      7  N   LIG    1        3.947   2.731   1.769  0.00  0.00    -0.270 N 
ATOM      8  C   LIG    1        5.322   2.813   1.958  0.00  0.00    +0.352 A 
ATOM      9  O   LIG    1        6.045   1.909   1.535  0.00  0.00    -0.244 OA
ATOM     10  N   LIG    1        5.797   3.964   2.627  0.00  0.00    -0.178 NA
ATOM     11  C   LIG    1        5.021   4.914   3.020  0.00  0.00    +0.123 A 
ATOM     12  C   LIG    1        3.604   4.849   2.814  0.00  0.00    +0.061 A 
ATOM     13  C   LIG    1        3.130   3.756   2.197  0.00  0.00    +0.096 A 
BRANCH  11  14
ATOM     14  N   LIG    1        5.510   5.998   3.639  0.00  0.00    -0.343 N 
ATOM     15  H   LIG    1        6.502   6.084   3.805  0.00  0.00    +0.144 HD
ATOM     16  H   LIG    1        4.895   6.738   3.944  0.00  0.00    +0.144 HD
ENDBRANCH  11  14
ENDBRANCH   5   7
BRANCH   1  17
ATOM     17  C   LIG    1        1.647  -0.172  -0.672  0.00  0.00    +0.151 C 
ATOM     18 CL   LIG    1        0.813  -1.717  -1.006  0.00  0.00    -0.122 Cl
ENDBRANCH   1  17
BRANCH   1  19
ATOM     19  C   LIG    1       -0.094   0.503   1.133  0.00  0.00    +0.272 C 
BRANCH  19  20
ATOM     20  O   LIG    1       -0.752   1.328   0.179  0.00  0.00    -0.461 OA
BRANCH  20  21
ATOM     21  C   LIG    1       -2.082   1.563   0.260  0.00  0.00    +0.310 C 
ATOM     22  O   LIG    1       -2.827   1.107   1.130  0.00  0.00    -0.251 OA
BRANCH  21  24
ATOM     23  C   LIG    1       -3.956   1.913  -1.447  0.00  0.00    +0.019 C 
ATOM     24  C   LIG    1       -2.636   2.465  -0.869  0.00  0.00    +0.092 C 
ATOM     25  C   LIG    1       -1.625   2.791  -1.993  0.00  0.00    +0.019 C 
ENDBRANCH  21  24
ENDBRANCH  20  21
ENDBRANCH  19  20
ENDBRANCH   1  19
BRANCH   2  26
ATOM     26  O   LIG    1        2.078  -1.784   1.813  0.00  0.00    -0.455 OA
BRANCH  26  27
ATOM     27  C   LIG    1        2.465  -2.595   2.826  0.00  0.00    +0.310 C 
ATOM     28  O   LIG    1        2.910  -2.221   3.914  0.00  0.00    -0.251 OA
BRANCH  27  29
ATOM     29  C   LIG    1        2.269  -4.082   2.477  0.00  0.00    +0.092 C 
ATOM     30  C   LIG    1        3.291  -4.535   1.413  0.00  0.00    +0.019 C 
ATOM     31  C   LIG    1        2.312  -5.004   3.714  0.00  0.00    +0.019 C 
ENDBRANCH  27  29
ENDBRANCH  26  27
ENDBRANCH   2  26
TORSDOF 10
