REMARK  Name = DB14998
REMARK                            x       y       z     vdW  Elec       q    Type
REMARK                         _______ _______ _______ _____ _____    ______ ____
ROOT
ATOM      1  C   LIG    1        3.773   0.536  -0.006  0.00  0.00    +0.151 A 
ATOM      2  C   LIG    1        4.835   1.452  -0.069  0.00  0.00    +0.006 A 
ATOM      3  C   LIG    1        5.155   2.923  -0.172  0.00  0.00    +0.043 C 
ATOM      4  C   LIG    1        6.700   2.935  -0.118  0.00  0.00    +0.003 C 
ATOM      5  C   LIG    1        7.255   1.530  -0.068  0.00  0.00    +0.041 C 
ATOM      6  C   LIG    1        7.394   2.345  -1.336  0.00  0.00    +0.014 C 
ATOM      7  C   LIG    1        5.986   0.715  -0.009  0.00  0.00    +0.049 A 
ATOM      8  N   LIG    1        5.608  -0.605   0.075  0.00  0.00    -0.241 N 
ATOM      9  N   LIG    1        4.259  -0.696   0.076  0.00  0.00    -0.164 NA
ENDROOT
BRANCH   8  10
ATOM     10  C   LIG    1        6.425  -1.765   0.136  0.00  0.00    +0.174 C 
ATOM     11  N   LIG    1        7.775  -1.584   0.034  0.00  0.00    -0.282 NA
ATOM     12  H   LIG    1        8.056  -0.968   0.797  0.00  0.00    +0.125 HD
ATOM     13  C   LIG    1        8.572  -2.683   0.087  0.00  0.00    +0.096 C 
ATOM     14  C   LIG    1        8.052  -3.970   0.242  0.00  0.00    +0.124 C 
ATOM     15  N   LIG    1        6.713  -4.109   0.341  0.00  0.00    -0.176 NA
ATOM     16  C   LIG    1        5.875  -3.049   0.294  0.00  0.00    +0.154 C 
BRANCH  15  17
ATOM     17  O   LIG    1        6.229  -5.263   0.482  0.00  0.00    -0.311 OA
ATOM     18  H   LIG    1        5.262  -5.204   0.538  0.00  0.00    +0.237 HD
ENDBRANCH  15  17
ENDBRANCH   8  10
BRANCH   1  21
ATOM     19  N   LIG    1        1.517  -0.130   0.153  0.00  0.00    -0.304 N 
ATOM     20  H   LIG    1        1.909  -1.033   0.376  0.00  0.00    +0.149 HD
ATOM     21  C   LIG    1        2.372   0.893  -0.056  0.00  0.00    +0.265 C 
ATOM     22  O   LIG    1        2.014   2.050  -0.280  0.00  0.00    -0.268 OA
BRANCH  19  23
ATOM     23  CA  LIG    1        0.043  -0.057   0.146  0.00  0.00    +0.104 C 
BRANCH  23  25
ATOM     24  C   LIG    1       -0.036   0.075  -2.414  0.00  0.00    +0.012 C 
ATOM     25  C   LIG    1       -0.588  -0.659  -1.164  0.00  0.00    -0.017 C 
ATOM     26  C   LIG    1       -0.261  -2.167  -1.310  0.00  0.00    +0.012 C 
ATOM     27  C   LIG    1       -2.127  -0.480  -1.164  0.00  0.00    +0.012 C 
ENDBRANCH  23  25
BRANCH  23  28
ATOM     28  C   LIG    1       -0.546  -0.623   1.469  0.00  0.00    +0.178 C 
BRANCH  28  29
ATOM     29  O   LIG    1        0.078  -0.072   2.614  0.00  0.00    -0.393 OA
ATOM     30  H   LIG    1       -0.330  -0.450   3.397  0.00  0.00    +0.209 HD
ENDBRANCH  28  29
ENDBRANCH  23  28
ENDBRANCH  19  23
ENDBRANCH   1  21
TORSDOF 7
