REMARK  Name = DB14949
REMARK                            x       y       z     vdW  Elec       q    Type
REMARK                         _______ _______ _______ _____ _____    ______ ____
ROOT
ATOM      1  C   LIG    1        1.417  -0.014  -0.058  0.00  0.00    +0.002 A 
ATOM      2  C   LIG    1        2.111  -0.586   1.017  0.00  0.00    +0.010 A 
ATOM      3  C   LIG    1        3.501  -0.659   1.013  0.00  0.00    +0.004 A 
ATOM      4  C   LIG    1        4.227  -0.165  -0.074  0.00  0.00    -0.044 A 
ATOM      5  C   LIG    1        3.544   0.398  -1.155  0.00  0.00    +0.004 A 
ATOM      6  C   LIG    1        2.154   0.469  -1.147  0.00  0.00    +0.010 A 
ENDROOT
BRANCH   1   9
ATOM      7  C   LIG    1       -0.236   2.503  -0.872  0.00  0.00    +0.068 C 
ATOM      8  C   LIG    1       -0.838   1.170  -0.451  0.00  0.00    +0.064 A 
ATOM      9  C   LIG    1       -0.077   0.053  -0.052  0.00  0.00    +0.093 A 
ATOM     10  N   LIG    1       -0.707  -1.075   0.383  0.00  0.00    -0.238 NA
ATOM     11  C   LIG    1       -2.070  -1.118   0.399  0.00  0.00    +0.147 A 
ATOM     12  C   LIG    1       -2.814   0.003  -0.025  0.00  0.00    +0.069 A 
ATOM     13  C   LIG    1       -4.337   0.067  -0.037  0.00  0.00    +0.068 C 
ATOM     14  N   LIG    1       -2.196   1.138  -0.444  0.00  0.00    -0.253 NA
BRANCH  11  15
ATOM     15  C   LIG    1       -2.707  -2.413   0.852  0.00  0.00    +0.262 C 
ATOM     16  O   LIG    1       -3.756  -2.826   0.360  0.00  0.00    -0.269 OA
ATOM     17  N   LIG    1       -2.075  -3.089   1.819  0.00  0.00    -0.324 N 
ATOM     18  H   LIG    1       -2.457  -3.958   2.163  0.00  0.00    +0.145 HD
ATOM     19  H   LIG    1       -1.207  -2.741   2.198  0.00  0.00    +0.145 HD
ENDBRANCH  11  15
ENDBRANCH   1   9
BRANCH   4  20
ATOM     20  C   LIG    1        5.755  -0.248  -0.086  0.00  0.00    +0.019 C 
ATOM     21  C   LIG    1        6.426   1.152  -0.129  0.00  0.00    +0.008 C 
ATOM     22  C   LIG    1        7.962   1.045  -0.206  0.00  0.00    +0.004 C 
ATOM     23  C   LIG    1        8.409   0.187  -1.415  0.00  0.00    -0.000 C 
ATOM     24  C   LIG    1        7.823  -1.231  -1.233  0.00  0.00    +0.004 C 
ATOM     25  C   LIG    1        6.282  -1.203  -1.191  0.00  0.00    +0.008 C 
BRANCH  23  26
ATOM     26  C   LIG    1        9.959   0.132  -1.570  0.00  0.00    +0.124 C 
BRANCH  26  27
ATOM     27  C   LIG    1       10.630   1.446  -2.043  0.00  0.00    +0.305 C 
ATOM     28  O   LIG    1       11.823   1.614  -1.706  0.00  0.00    -0.251 OA
BRANCH  27  29
ATOM     29  O   LIG    1        9.984   2.248  -2.758  0.00  0.00    -0.481 OA
ATOM     30  H   LIG    1       10.385   3.044  -3.048  0.00  0.00    +0.295 HD
ENDBRANCH  27  29
ENDBRANCH  26  27
ENDBRANCH  23  26
ENDBRANCH   4  20
TORSDOF 6
