REMARK  Name = DB14019
REMARK                            x       y       z     vdW  Elec       q    Type
REMARK                         _______ _______ _______ _____ _____    ______ ____
ROOT
ATOM      1  C   LIG    1       -0.606   1.677   0.062  0.00  0.00    +0.008 A 
ATOM      2  C   LIG    1        0.013   0.444  -0.247  0.00  0.00    +0.062 A 
ATOM      3  C   LIG    1       -0.810  -0.611  -0.659  0.00  0.00    +0.137 A 
ATOM      4  N   LIG    1       -2.160  -0.545  -0.664  0.00  0.00    -0.238 NA
ATOM      5  C   LIG    1       -2.772   0.613  -0.297  0.00  0.00    +0.122 A 
ATOM      6  C   LIG    1       -2.007   1.737   0.057  0.00  0.00    +0.054 A 
ENDROOT
BRANCH   1   9
ATOM      7  C   LIG    1       -0.412   3.874  -1.952  0.00  0.00    +0.044 C 
ATOM      8  C   LIG    1        0.253   3.969  -0.584  0.00  0.00    -0.043 A 
ATOM      9  C   LIG    1        0.158   2.923   0.358  0.00  0.00    -0.013 A 
ATOM     10  C   LIG    1        0.787   3.077   1.598  0.00  0.00    +0.009 A 
ATOM     11  C   LIG    1        1.516   4.226   1.898  0.00  0.00    +0.001 A 
ATOM     12  C   LIG    1        1.619   5.247   0.958  0.00  0.00    +0.000 A 
ATOM     13  C   LIG    1        0.988   5.119  -0.277  0.00  0.00    +0.004 A 
ENDBRANCH   1   9
BRANCH   5  14
ATOM     14  N   LIG    1       -4.171   0.592  -0.237  0.00  0.00    -0.319 N 
ATOM     15  C   LIG    1       -4.958  -0.310  -1.107  0.00  0.00    +0.088 C 
ATOM     16  C   LIG    1       -6.379  -0.651  -0.602  0.00  0.00    -0.053 C 
ATOM     17  N   LIG    1       -7.195   0.626  -0.287  0.00  0.00    +0.396 N 
ATOM     18  C   LIG    1       -6.367   1.479   0.704  0.00  0.00    -0.053 C 
ATOM     19  C   LIG    1       -8.504   0.191   0.420  0.00  0.00    -0.088 C 
ATOM     20  C   LIG    1       -4.956   1.782   0.149  0.00  0.00    +0.088 C 
BRANCH  17  21
ATOM     21  C   LIG    1       -7.531   1.401  -1.592  0.00  0.00    +0.102 C 
BRANCH  21  22
ATOM     22  O   LIG    1       -8.265   2.553  -1.213  0.00  0.00    -0.305 OA
BRANCH  22  23
ATOM     23  P   LIG    1       -8.755   3.614  -2.480  0.00  0.00    +0.471 P 
ATOM     24  O   LIG    1       -9.498   4.771  -1.852  0.00  0.00    -0.228 OA
BRANCH  23  25
ATOM     25  O   LIG    1       -7.604   3.791  -3.446  0.00  0.00    -0.303 OA
ATOM     26  H   LIG    1       -7.872   4.388  -4.162  0.00  0.00    +0.222 HD
ENDBRANCH  23  25
BRANCH  23  27
ATOM     27  O   LIG    1       -9.902   2.567  -3.204  0.00  0.00    -0.303 OA
ATOM     28  H   LIG    1       -9.797   2.187  -4.097  0.00  0.00    +0.222 HD
ENDBRANCH  23  27
ENDBRANCH  22  23
ENDBRANCH  21  22
ENDBRANCH  17  21
ENDBRANCH   5  14
BRANCH   2  29
ATOM     29  N   LIG    1        1.419   0.278  -0.247  0.00  0.00    -0.272 N 
ATOM     30  C   LIG    1        2.064  -0.756   0.390  0.00  0.00    +0.230 C 
ATOM     31  O   LIG    1        3.137  -1.181  -0.053  0.00  0.00    -0.274 OA
ATOM     32  C   LIG    1        2.132   1.035  -1.292  0.00  0.00    +0.138 C 
BRANCH  30  33
ATOM     33  C   LIG    1        1.511  -1.442   1.706  0.00  0.00    +0.067 C 
ATOM     34  C   LIG    1        2.694  -2.072   2.506  0.00  0.00    +0.025 C 
ATOM     35  C   LIG    1        0.897  -0.393   2.680  0.00  0.00    +0.025 C 
BRANCH  33  36
ATOM     36  C   LIG    1        0.530  -2.590   1.337  0.00  0.00    -0.032 A 
ATOM     37  C   LIG    1        0.947  -3.635   0.496  0.00  0.00    +0.017 A 
ATOM     38  C   LIG    1        0.082  -4.668   0.123  0.00  0.00    +0.056 A 
ATOM     39  C   LIG    1       -1.230  -4.664   0.607  0.00  0.00    +0.024 A 
ATOM     40  C   LIG    1       -1.674  -3.648   1.459  0.00  0.00    +0.056 A 
ATOM     41  C   LIG    1       -0.786  -2.633   1.829  0.00  0.00    +0.017 A 
BRANCH  38  42
ATOM     42  C   LIG    1        0.581  -5.771  -0.809  0.00  0.00    +0.417 C 
ATOM     43  F   LIG    1        1.741  -6.257  -0.367  0.00  0.00    -0.166 F 
ATOM     44  F   LIG    1        0.765  -5.262  -2.027  0.00  0.00    -0.166 F 
ATOM     45  F   LIG    1       -0.282  -6.784  -0.907  0.00  0.00    -0.166 F 
ENDBRANCH  38  42
BRANCH  40  46
ATOM     46  C   LIG    1       -3.110  -3.616   1.979  0.00  0.00    +0.417 C 
ATOM     47  F   LIG    1       -3.871  -4.570   1.439  0.00  0.00    -0.166 F 
ATOM     48  F   LIG    1       -3.669  -2.437   1.700  0.00  0.00    -0.166 F 
ATOM     49  F   LIG    1       -3.107  -3.786   3.301  0.00  0.00    -0.166 F 
ENDBRANCH  40  46
ENDBRANCH  33  36
ENDBRANCH  30  33
ENDBRANCH   2  29
TORSDOF 12
