REMARK  Name = DB14598
REMARK                            x       y       z     vdW  Elec       q    Type
REMARK                         _______ _______ _______ _____ _____    ______ ____
ROOT
ATOM      1  C   LIG    1       -0.085  -0.261  -0.236  0.00  0.00    +0.101 C 
ENDROOT
BRANCH   1   2
ATOM      2  N   LIG    1       -0.637   1.100  -0.353  0.00  0.00    -0.281 NA
BRANCH   2   3
ATOM      3  C   LIG    1       -1.098   1.696   0.921  0.00  0.00    +0.206 C 
BRANCH   3   4
ATOM      4  C   LIG    1       -0.070   2.625   1.619  0.00  0.00    +0.319 C 
ATOM      5  O   LIG    1       -0.281   2.859   2.831  0.00  0.00    -0.250 OA
BRANCH   4   6
ATOM      6  O   LIG    1        0.869   3.140   0.966  0.00  0.00    -0.480 OA
ATOM      7  H   LIG    1        1.462   3.732   1.385  0.00  0.00    +0.295 HD
ENDBRANCH   4   6
ENDBRANCH   3   4
ENDBRANCH   2   3
BRANCH   2   8
ATOM      8  C   LIG    1       -1.599   1.243  -1.468  0.00  0.00    +0.206 C 
BRANCH   8   9
ATOM      9  C   LIG    1       -2.974   0.515  -1.375  0.00  0.00    +0.319 C 
ATOM     10  O   LIG    1       -3.701   0.616  -2.389  0.00  0.00    -0.250 OA
BRANCH   9  11
ATOM     11  O   LIG    1       -3.316  -0.109  -0.343  0.00  0.00    -0.480 OA
ATOM     12  H   LIG    1       -4.148  -0.539  -0.310  0.00  0.00    +0.295 HD
ENDBRANCH   9  11
ENDBRANCH   8   9
ENDBRANCH   2   8
ENDBRANCH   1   2
BRANCH   1  13
ATOM     13  C   LIG    1        1.181  -0.340   0.653  0.00  0.00    +0.101 C 
BRANCH  13  14
ATOM     14  N   LIG    1        2.036  -1.490   0.310  0.00  0.00    -0.281 NA
BRANCH  14  15
ATOM     15  C   LIG    1        2.812  -1.196  -0.916  0.00  0.00    +0.206 C 
BRANCH  15  16
ATOM     16  C   LIG    1        3.423  -2.430  -1.639  0.00  0.00    +0.319 C 
ATOM     17  O   LIG    1        4.303  -2.178  -2.494  0.00  0.00    -0.250 OA
BRANCH  16  18
ATOM     18  O   LIG    1        3.012  -3.588  -1.387  0.00  0.00    -0.480 OA
ATOM     19  H   LIG    1        3.388  -4.325  -1.828  0.00  0.00    +0.295 HD
ENDBRANCH  16  18
ENDBRANCH  15  16
ENDBRANCH  14  15
BRANCH  14  20
ATOM     20  C   LIG    1        2.954  -1.802   1.431  0.00  0.00    +0.206 C 
BRANCH  20  21
ATOM     21  C   LIG    1        2.311  -2.530   2.645  0.00  0.00    +0.319 C 
ATOM     22  O   LIG    1        1.186  -3.075   2.544  0.00  0.00    -0.250 OA
BRANCH  21  23
ATOM     23  O   LIG    1        3.004  -2.560   3.688  0.00  0.00    -0.480 OA
ATOM     24  H   LIG    1        2.675  -2.983   4.457  0.00  0.00    +0.295 HD
ENDBRANCH  21  23
ENDBRANCH  20  21
ENDBRANCH  14  20
ENDBRANCH  13  14
ENDBRANCH   1  13
TORSDOF 15
