REMARK  Name = DB14770
REMARK                            x       y       z     vdW  Elec       q    Type
REMARK                         _______ _______ _______ _____ _____    ______ ____
ROOT
ATOM      1  N   LIG    1        0.756   0.267  -1.132  0.00  0.00    -0.296 N 
ATOM      2  H   LIG    1        1.178   1.185  -1.145  0.00  0.00    +0.154 HD
ENDROOT
BRANCH   1   5
ATOM      3  C   LIG    1       -2.334   1.557   0.191  0.00  0.00    +0.109 A 
ATOM      4  N   LIG    1       -1.089   1.449  -0.349  0.00  0.00    -0.225 NA
ATOM      5  C   LIG    1       -0.535   0.231  -0.582  0.00  0.00    +0.167 A 
ATOM      6  C   LIG    1       -1.220  -0.962  -0.242  0.00  0.00    +0.178 A 
ATOM      7  N   LIG    1       -0.886  -2.281  -0.326  0.00  0.00    -0.233 NA
ATOM      8  C   LIG    1       -1.933  -2.925   0.142  0.00  0.00    +0.131 A 
ATOM      9  C   LIG    1       -2.962  -2.083   0.551  0.00  0.00    +0.112 A 
ATOM     10  N   LIG    1       -2.505  -0.814   0.314  0.00  0.00    -0.302 N 
ATOM     11  C   LIG    1       -3.068   0.415   0.528  0.00  0.00    +0.122 A 
BRANCH   3  14
ATOM     12  C   LIG    1       -4.525   4.319   1.303  0.00  0.00    +0.135 A 
ATOM     13  N   LIG    1       -4.028   3.073   1.091  0.00  0.00    -0.228 NA
ATOM     14  C   LIG    1       -2.855   2.948   0.403  0.00  0.00    +0.111 A 
ATOM     15  C   LIG    1       -2.199   4.100  -0.066  0.00  0.00    +0.140 A 
ATOM     16  N   LIG    1       -2.692   5.349   0.142  0.00  0.00    -0.258 NA
ATOM     17  C   LIG    1       -3.858   5.450   0.829  0.00  0.00    +0.154 A 
BRANCH  12  18
ATOM     18  N   LIG    1       -5.721   4.439   2.007  0.00  0.00    -0.342 N 
ATOM     19  H   LIG    1       -6.180   3.606   2.346  0.00  0.00    +0.144 HD
ATOM     20  H   LIG    1       -6.111   5.355   2.175  0.00  0.00    +0.144 HD
ENDBRANCH  12  18
ENDBRANCH   3  14
ENDBRANCH   1   5
BRANCH   1  21
ATOM     21  C   LIG    1        1.491  -0.726  -1.795  0.00  0.00    +0.033 A 
ATOM     22  C   LIG    1        0.901  -1.540  -2.765  0.00  0.00    +0.025 A 
ATOM     23  C   LIG    1        1.658  -2.510  -3.414  0.00  0.00    +0.025 A 
ATOM     24  C   LIG    1        3.013  -2.673  -3.102  0.00  0.00    +0.030 A 
ATOM     25  C   LIG    1        3.608  -1.827  -2.162  0.00  0.00    +0.025 A 
ATOM     26  C   LIG    1        2.850  -0.859  -1.509  0.00  0.00    +0.025 A 
BRANCH  24  27
ATOM     27  N   LIG    1        3.794  -3.611  -3.755  0.00  0.00    -0.333 N 
ATOM     28  C   LIG    1        3.337  -5.008  -3.828  0.00  0.00    +0.086 C 
ATOM     29  C   LIG    1        4.441  -6.012  -4.228  0.00  0.00    -0.059 C 
ATOM     30  N   LIG    1        5.109  -5.604  -5.557  0.00  0.00    +0.387 N 
ATOM     31  H   LIG    1        5.921  -6.192  -5.684  0.00  0.00    -0.081 HD
ATOM     32  C   LIG    1        5.603  -4.145  -5.452  0.00  0.00    -0.059 C 
ATOM     33  C   LIG    1        4.469  -3.198  -4.994  0.00  0.00    +0.086 C 
BRANCH  30  34
ATOM     34  C   LIG    1        4.203  -5.846  -6.789  0.00  0.00    -0.016 C 
ATOM     35  C   LIG    1        4.887  -5.757  -8.160  0.00  0.00    +0.147 C 
ATOM     36  O   LIG    1        4.557  -7.181  -8.448  0.00  0.00    -0.383 OA
ATOM     37  C   LIG    1        3.889  -7.311  -7.123  0.00  0.00    +0.147 C 
ENDBRANCH  30  34
ENDBRANCH  24  27
ENDBRANCH   1  21
TORSDOF 6
