REMARK  Name = DB14017
REMARK                            x       y       z     vdW  Elec       q    Type
REMARK                         _______ _______ _______ _____ _____    ______ ____
ROOT
ATOM      1  C   LIG    1       -3.935   0.007  -2.361  0.00  0.00    +0.232 C 
ATOM      2  C   LIG    1       -4.345   1.517  -2.401  0.00  0.00    +0.104 C 
ATOM      3  C   LIG    1       -5.882   1.650  -2.283  0.00  0.00    +0.045 C 
ATOM      4  C   LIG    1       -3.631   2.360  -1.300  0.00  0.00    +0.041 C 
ATOM      5  C   LIG    1       -3.927   1.961   0.165  0.00  0.00    +0.035 C 
ATOM      6  C   LIG    1       -3.079   2.728   1.211  0.00  0.00    +0.125 C 
ATOM      7  C   LIG    1       -1.540   2.535   1.103  0.00  0.00    +0.151 C 
ATOM      8  C   LIG    1       -1.043   1.081   1.118  0.00  0.00    +0.310 C 
ATOM      9  O   LIG    1       -1.509   0.244   1.894  0.00  0.00    -0.251 OA
ATOM     10  O   LIG    1       -0.112   0.847   0.160  0.00  0.00    -0.456 OA
ATOM     11  C   LIG    1        0.400  -0.468  -0.102  0.00  0.00    +0.209 C 
ATOM     12  C   LIG    1       -0.236  -1.060  -1.398  0.00  0.00    +0.053 C 
ATOM     13  C   LIG    1        0.159  -2.533  -1.614  0.00  0.00    +0.016 C 
ATOM     14  C   LIG    1       -1.749  -0.896  -1.436  0.00  0.00    -0.020 C 
ATOM     15  C   LIG    1       -2.428  -0.230  -2.386  0.00  0.00    +0.016 C 
ENDROOT
BRANCH  11  16
ATOM     16  C   LIG    1        1.932  -0.423  -0.112  0.00  0.00    -0.032 C 
ATOM     17  C   LIG    1        2.551   0.567  -1.100  0.00  0.00    +0.043 C 
ATOM     18  C   LIG    1        2.640  -1.217   0.724  0.00  0.00    +0.002 C 
BRANCH  18  19
ATOM     19  C   LIG    1        4.088  -1.295   0.835  0.00  0.00    -0.004 C 
ATOM     20  C   LIG    1        4.704  -2.126   1.698  0.00  0.00    -0.018 C 
BRANCH  20  21
ATOM     21  C   LIG    1        6.211  -2.301   1.893  0.00  0.00    +0.057 C 
ATOM     22  C   LIG    1        7.106  -1.464   0.952  0.00  0.00    +0.018 C 
BRANCH  21  23
ATOM     23  C   LIG    1        6.626  -2.117   3.353  0.00  0.00    +0.048 A 
ATOM     24  N   LIG    1        6.318  -0.922   3.931  0.00  0.00    -0.259 NA
ATOM     25  C   LIG    1        6.682  -0.725   5.224  0.00  0.00    +0.111 A 
ATOM     26  C   LIG    1        7.357  -1.687   5.977  0.00  0.00    +0.020 A 
ATOM     27  C   LIG    1        7.671  -2.906   5.371  0.00  0.00    +0.003 A 
ATOM     28  C   LIG    1        7.305  -3.129   4.042  0.00  0.00    +0.024 A 
ENDBRANCH  21  23
ENDBRANCH  20  21
ENDBRANCH  18  19
ENDBRANCH  11  16
BRANCH   2  29
ATOM     29  O   LIG    1       -3.964   2.078  -3.648  0.00  0.00    -0.385 OA
ATOM     30  H   LIG    1       -4.237   2.998  -3.664  0.00  0.00    +0.210 HD
ENDBRANCH   2  29
BRANCH   6  31
ATOM     31  O   LIG    1       -3.523   2.376   2.508  0.00  0.00    -0.391 OA
ATOM     32  H   LIG    1       -3.326   1.447   2.655  0.00  0.00    +0.210 HD
ENDBRANCH   6  31
BRANCH   1  33
ATOM     33  O   LIG    1       -4.567  -0.701  -3.433  0.00  0.00    -0.440 OA
BRANCH  33  34
ATOM     34  C   LIG    1       -4.774  -2.048  -3.404  0.00  0.00    +0.403 C 
ATOM     35  N   LIG    1       -5.332  -2.516  -4.610  0.00  0.00    -0.271 N 
ATOM     36  C   LIG    1       -5.411  -3.975  -4.802  0.00  0.00    +0.092 C 
ATOM     37  C   LIG    1       -4.100  -4.438  -5.488  0.00  0.00    -0.060 C 
ATOM     38  N   LIG    1       -3.896  -3.660  -6.809  0.00  0.00    +0.380 N 
ATOM     39  H   LIG    1       -4.674  -3.870  -7.420  0.00  0.00    -0.082 HD
ATOM     40  C   LIG    1       -2.584  -4.094  -7.491  0.00  0.00    -0.096 C 
ATOM     41  C   LIG    1       -3.889  -2.137  -6.545  0.00  0.00    -0.060 C 
ATOM     42  C   LIG    1       -5.212  -1.727  -5.855  0.00  0.00    +0.092 C 
ATOM     43  O   LIG    1       -4.505  -2.751  -2.426  0.00  0.00    -0.226 OA
ENDBRANCH  33  34
ENDBRANCH   1  33
TORSDOF 8
