REMARK  Name = DB14655
REMARK                            x       y       z     vdW  Elec       q    Type
REMARK                         _______ _______ _______ _____ _____    ______ ____
ROOT
ATOM      1  C   LIG    1       -1.919  -1.685  -0.780  0.00  0.00    +0.008 C 
ATOM      2  C   LIG    1       -0.752  -0.845  -1.340  0.00  0.00    +0.045 C 
ATOM      3  C   LIG    1       -0.124  -0.130  -0.119  0.00  0.00    +0.183 C 
ATOM      4  C   LIG    1       -0.526  -0.984   1.106  0.00  0.00    +0.008 C 
ATOM      5  C   LIG    1        0.386  -2.248   1.222  0.00  0.00    +0.015 C 
ATOM      6  C   LIG    1       -0.585  -0.204   2.442  0.00  0.00    +0.011 C 
ATOM      7  C   LIG    1       -1.265  -1.038   3.557  0.00  0.00    +0.005 C 
ATOM      8  C   LIG    1       -2.678  -1.579   3.152  0.00  0.00    -0.001 C 
ATOM      9  C   LIG    1       -2.682  -2.239   1.723  0.00  0.00    -0.004 C 
ATOM     10  C   LIG    1       -4.130  -2.576   1.296  0.00  0.00    +0.004 C 
ATOM     11  C   LIG    1       -4.840  -3.451   2.343  0.00  0.00    +0.005 C 
ATOM     12  C   LIG    1       -4.829  -2.775   3.735  0.00  0.00    +0.002 C 
ATOM     13  C   LIG    1       -5.689  -3.563   4.758  0.00  0.00    +0.078 C 
ATOM     14  C   LIG    1       -5.679  -2.951   6.169  0.00  0.00    +0.136 C 
ATOM     15  O   LIG    1       -6.719  -2.817   6.814  0.00  0.00    -0.297 OA
ATOM     16  C   LIG    1       -4.291  -2.499   6.684  0.00  0.00    +0.053 C 
ATOM     17  C   LIG    1       -4.402  -1.679   7.989  0.00  0.00    +0.015 C 
ATOM     18  C   LIG    1       -3.518  -1.725   5.587  0.00  0.00    +0.018 C 
ATOM     19  C   LIG    1       -3.369  -2.493   4.239  0.00  0.00    -0.025 C 
ATOM     20  C   LIG    1       -2.571  -3.816   4.463  0.00  0.00    +0.012 C 
ATOM     21  C   LIG    1       -1.986  -1.297   0.705  0.00  0.00    +0.002 C 
ENDROOT
BRANCH   3  22
ATOM     22  O   LIG    1        1.292   0.041  -0.225  0.00  0.00    -0.461 OA
BRANCH  22  23
ATOM     23  C   LIG    1        1.835   0.981  -1.031  0.00  0.00    +0.307 C 
ATOM     24  O   LIG    1        1.218   1.780  -1.737  0.00  0.00    -0.251 OA
BRANCH  23  25
ATOM     25  C   LIG    1        3.364   0.971  -0.994  0.00  0.00    +0.117 C 
ATOM     26  C   LIG    1        3.964  -0.270  -1.676  0.00  0.00    +0.015 C 
ENDBRANCH  23  25
ENDBRANCH  22  23
ENDBRANCH   3  22
TORSDOF 3
