REMARK  Name = DB14792
REMARK                            x       y       z     vdW  Elec       q    Type
REMARK                         _______ _______ _______ _____ _____    ______ ____
ROOT
ATOM      1  C   LIG    1       -0.099  -0.204   0.187  0.00  0.00    +0.172 C 
ATOM      2  N   LIG    1        1.353  -0.145   0.104  0.00  0.00    -0.270 N 
ATOM      3  C   LIG    1        2.153   0.959  -0.086  0.00  0.00    +0.049 A 
ATOM      4  C   LIG    1        3.437   0.442  -0.060  0.00  0.00    +0.049 A 
ATOM      5  C   LIG    1        3.313  -0.937   0.137  0.00  0.00    +0.073 A 
ATOM      6  C   LIG    1        4.395  -1.996   0.160  0.00  0.00    +0.126 C 
ATOM      7  S   LIG    1        4.946  -2.474  -1.506  0.00  0.00    -0.148 S 
ATOM      8  C   LIG    1        3.386  -3.082  -2.214  0.00  0.00    +0.127 C 
ATOM      9  C   LIG    1        3.551  -3.674  -3.596  0.00  0.00    +0.081 A 
ATOM     10  C   LIG    1        3.299  -3.086  -4.851  0.00  0.00    +0.030 A 
ATOM     11  C   LIG    1        2.808  -1.708  -5.153  0.00  0.00    +0.028 A 
ATOM     12  C   LIG    1        3.607  -0.743  -5.818  0.00  0.00    +0.059 A 
ATOM     13  N   LIG    1        4.961  -0.708  -6.156  0.00  0.00    -0.337 N 
ATOM     14  C   LIG    1        5.210   0.403  -6.980  0.00  0.00    +0.131 A 
ATOM     15  C   LIG    1        4.052   1.194  -7.016  0.00  0.00    -0.008 A 
ATOM     16  C   LIG    1        3.797   2.514  -7.741  0.00  0.00    +0.041 C 
ATOM     17  C   LIG    1        3.708   3.734  -6.804  0.00  0.00    +0.046 C 
ATOM     18  C   LIG    1        4.937   3.930  -5.886  0.00  0.00    +0.229 C 
ATOM     19  O   LIG    1        4.821   5.086  -5.056  0.00  0.00    -0.491 OA
ATOM     20  C   LIG    1        3.951   5.106  -3.976  0.00  0.00    +0.129 A 
ATOM     21  C   LIG    1        3.854   6.319  -3.228  0.00  0.00    +0.024 A 
ATOM     22  C   LIG    1        4.612   7.476  -3.562  0.00  0.00    +0.012 A 
ATOM     23  C   LIG    1        4.496   8.644  -2.814  0.00  0.00    +0.001 A 
ATOM     24  C   LIG    1        3.635   8.703  -1.725  0.00  0.00    +0.001 A 
ATOM     25  C   LIG    1        2.876   7.594  -1.365  0.00  0.00    +0.008 A 
ATOM     26  C   LIG    1        2.971   6.388  -2.104  0.00  0.00    -0.013 A 
ATOM     27  C   LIG    1        2.206   5.252  -1.754  0.00  0.00    +0.023 A 
ATOM     28  C   LIG    1        2.314   4.080  -2.494  0.00  0.00    +0.012 A 
ATOM     29  S   LIG    1        1.336   2.673  -2.073  0.00  0.00    -0.119 S 
ATOM     30  C   LIG    1        3.177   4.005  -3.579  0.00  0.00    +0.061 A 
ATOM     31  C   LIG    1        5.934  -1.715  -5.707  0.00  0.00    +0.149 C 
ATOM     32  C   LIG    1        3.056   0.498  -6.258  0.00  0.00    +0.005 A 
ATOM     33  C   LIG    1        1.728   0.808  -5.934  0.00  0.00    +0.012 A 
ATOM     34  C   LIG    1        0.968  -0.107  -5.220  0.00  0.00    +0.021 A 
ATOM     35  C   LIG    1        1.483  -1.345  -4.854  0.00  0.00    +0.051 A 
ATOM     36 CL   LIG    1        0.410  -2.440  -4.047  0.00  0.00    -0.083 Cl
ATOM     37  C   LIG    1        3.607  -4.069  -5.787  0.00  0.00    +0.044 A 
ATOM     38  C   LIG    1        3.562  -4.082  -7.301  0.00  0.00    +0.066 C 
ATOM     39  N   LIG    1        4.002  -5.150  -5.037  0.00  0.00    -0.271 N 
ATOM     40  C   LIG    1        4.489  -6.441  -5.501  0.00  0.00    +0.172 C 
ATOM     41  N   LIG    1        3.991  -4.906  -3.723  0.00  0.00    -0.175 NA
ATOM     42  C   LIG    1        1.631   2.360  -0.311  0.00  0.00    +0.129 C 
ATOM     43  N   LIG    1        2.051  -1.275   0.279  0.00  0.00    -0.175 NA
ENDROOT
BRANCH  14  44
ATOM     44  C   LIG    1        6.541   0.624  -7.638  0.00  0.00    +0.354 C 
ATOM     45  O   LIG    1        6.859   1.804  -7.910  0.00  0.00    -0.243 OA
BRANCH  44  46
ATOM     46  O   LIG    1        7.257  -0.360  -7.938  0.00  0.00    -0.476 OA
ATOM     47  H   LIG    1        8.088  -0.227  -8.349  0.00  0.00    +0.295 HD
ENDBRANCH  44  46
ENDBRANCH  14  44
TORSDOF 2
