REMARK  Name = DB14983
REMARK                            x       y       z     vdW  Elec       q    Type
REMARK                         _______ _______ _______ _____ _____    ______ ____
ROOT
ATOM      1  S   LIG    1        1.819  -0.083  -0.001  0.00  0.00    +0.113 S 
ATOM      2  O   LIG    1        2.305   1.034  -0.820  0.00  0.00    -0.148 OA
ATOM      3  O   LIG    1        2.220  -1.471  -0.258  0.00  0.00    -0.148 OA
ENDROOT
BRANCH   1   7
ATOM      4  C   LIG    1       -2.814   2.180   0.128  0.00  0.00    +0.086 C 
ATOM      5  C   LIG    1       -1.930   0.962   0.029  0.00  0.00    +0.104 A 
ATOM      6  O   LIG    1       -0.589   1.182   0.064  0.00  0.00    -0.442 OA
ATOM      7  C   LIG    1        0.018  -0.028  -0.046  0.00  0.00    +0.260 A 
ATOM      8  C   LIG    1       -0.929  -1.034  -0.134  0.00  0.00    +0.071 A 
ATOM      9  C   LIG    1       -2.172  -0.400  -0.094  0.00  0.00    +0.046 A 
ENDBRANCH   1   7
BRANCH   1  10
ATOM     10  N   LIG    1        2.099   0.301   1.695  0.00  0.00    -0.068 NA
ATOM     11  H   LIG    1        1.936   1.288   1.912  0.00  0.00    +0.181 HD
BRANCH  10  12
ATOM     12  O   LIG    1        3.486   0.138   1.930  0.00  0.00    -0.294 OA
ATOM     13  H   LIG    1        3.497  -0.208   2.826  0.00  0.00    +0.238 HD
ENDBRANCH  10  12
ENDBRANCH   1  10
TORSDOF 3
