REMARK  Name = DB14772
REMARK                            x       y       z     vdW  Elec       q    Type
REMARK                         _______ _______ _______ _____ _____    ______ ____
ROOT
ATOM      1  N   UNK A  1       -1.251   0.422   0.224  0.00  0.00    -0.286 N 
ATOM      2  H   UNK A  1       -1.338  -0.431  -0.310  0.00  0.00    +0.151 HD
ATOM      3  C   UNK A  0       -0.011   0.811   0.573  0.00  0.00    +0.301 C 
ATOM      4  N   UNK A  1        0.919  -0.053   0.130  0.00  0.00    -0.285 N 
ATOM      5  H   UNK A  1        0.638  -0.754  -0.539  0.00  0.00    +0.151 HD
ATOM      6  O   UNK A  0        0.245   1.836   1.207  0.00  0.00    -0.253 OA
ENDROOT
BRANCH   1   7
ATOM      7  C   UNK A  1       -2.517   1.169   0.377  0.00  0.00    +0.183 C 
BRANCH   7   8
ATOM      8  C   UNK A  1       -2.824   1.572   1.871  0.00  0.00    +0.325 C 
ATOM      9  O   UNK A  1       -2.830   2.807   2.083  0.00  0.00    -0.249 OA
BRANCH   8  10
ATOM     10  O   UNK A  1       -3.030   0.632   2.676  0.00  0.00    -0.479 OA
ATOM     11  H   UNK A  1       -3.217   0.817   3.575  0.00  0.00    +0.295 HD
ENDBRANCH   8  10
ENDBRANCH   7   8
BRANCH   7  12
ATOM     12  C   UNK A  1       -3.686   0.310  -0.191  0.00  0.00    +0.045 C 
BRANCH  12  13
ATOM     13  C   UNK A  1       -3.554  -0.008  -1.701  0.00  0.00    +0.123 C 
BRANCH  13  14
ATOM     14  C   UNK A  1       -4.708  -0.818  -2.323  0.00  0.00    +0.305 C 
ATOM     15  O   UNK A  1       -4.616  -1.058  -3.547  0.00  0.00    -0.251 OA
BRANCH  14  16
ATOM     16  O   UNK A  1       -5.660  -1.190  -1.599  0.00  0.00    -0.481 OA
ATOM     17  H   UNK A  1       -6.533  -0.912  -1.794  0.00  0.00    +0.295 HD
ENDBRANCH  14  16
ENDBRANCH  13  14
ENDBRANCH  12  13
ENDBRANCH   7  12
ENDBRANCH   1   7
BRANCH   4  18
ATOM     18  C   UNK A  1        2.381   0.070   0.325  0.00  0.00    +0.193 C 
BRANCH  18  19
ATOM     19  C   UNK A  1        3.172  -0.197  -1.018  0.00  0.00    +0.326 C 
ATOM     20  O   UNK A  1        4.367   0.183  -0.988  0.00  0.00    -0.249 OA
BRANCH  19  21
ATOM     21  O   UNK A  1        2.568  -0.771  -1.957  0.00  0.00    -0.479 OA
ATOM     22  H   UNK A  1        3.012  -0.942  -2.765  0.00  0.00    +0.295 HD
ENDBRANCH  19  21
ENDBRANCH  18  19
BRANCH  18  23
ATOM     23  C   UNK A  1        2.924  -0.853   1.456  0.00  0.00    +0.103 C 
BRANCH  23  24
ATOM     24  S   UNK A  1        2.053  -0.703   3.052  0.00  0.00    -0.154 S 
BRANCH  24  25
ATOM     25  C   UNK A  1        1.388  -2.384   3.267  0.00  0.00    +0.104 C 
BRANCH  25  26
ATOM     26  C   UNK A  1        0.237  -2.682   2.316  0.00  0.00    -0.037 A 
ATOM     27  C   UNK A  1       -1.061  -2.287   2.650  0.00  0.00    +0.007 A 
ATOM     28  C   UNK A  1       -2.117  -2.566   1.788  0.00  0.00    +0.038 A 
ATOM     29  C   UNK A  1       -1.874  -3.228   0.586  0.00  0.00    +0.123 A 
ATOM     30  F   UNK A  1       -2.900  -3.489  -0.256  0.00  0.00    -0.205 F 
ATOM     31  C   UNK A  1       -0.583  -3.626   0.247  0.00  0.00    +0.038 A 
ATOM     32  C   UNK A  1        0.472  -3.360   1.115  0.00  0.00    +0.007 A 
ENDBRANCH  25  26
ENDBRANCH  24  25
ENDBRANCH  23  24
ENDBRANCH  18  23
ENDBRANCH   4  18
TORSDOF 14
