REMARK  Name = DB14644
REMARK                            x       y       z     vdW  Elec       q    Type
REMARK                         _______ _______ _______ _____ _____    ______ ____
ROOT
ATOM      1  C   LIG    1       -3.418  -2.393   4.284  0.00  0.00    +0.013 C 
ATOM      2  C   LIG    1       -2.716  -3.731   4.651  0.00  0.00    +0.020 C 
ATOM      3  C   LIG    1       -3.576  -1.615   5.600  0.00  0.00    -0.012 C 
ATOM      4  C   LIG    1       -4.745  -1.275   6.176  0.00  0.00    +0.047 C 
ATOM      5  C   LIG    1       -6.049  -1.604   5.616  0.00  0.00    +0.179 C 
ATOM      6  O   LIG    1       -7.109  -1.288   6.152  0.00  0.00    -0.288 OA
ATOM      7  C   LIG    1       -5.976  -2.342   4.356  0.00  0.00    +0.051 C 
ATOM      8  C   LIG    1       -2.670  -1.520   3.201  0.00  0.00    +0.035 C 
ATOM      9  C   LIG    1       -1.272  -0.937   3.631  0.00  0.00    +0.120 C 
ATOM     10  C   LIG    1       -0.618  -0.101   2.494  0.00  0.00    +0.041 C 
ATOM     11  C   LIG    1       -0.513  -0.856   1.131  0.00  0.00    +0.009 C 
ATOM     12  C   LIG    1       -1.962  -1.268   0.761  0.00  0.00    +0.002 C 
ATOM     13  C   LIG    1       -1.909  -1.661  -0.722  0.00  0.00    +0.008 C 
ATOM     14  C   LIG    1       -0.771  -0.803  -1.315  0.00  0.00    +0.043 C 
ATOM     15  C   LIG    1        0.458  -2.084   1.234  0.00  0.00    +0.015 C 
ATOM     16  C   LIG    1       -0.180   0.031  -0.133  0.00  0.00    +0.133 C 
ATOM     17  C   LIG    1       -2.628  -2.217   1.797  0.00  0.00    -0.000 C 
ATOM     18  C   LIG    1       -4.054  -2.607   1.345  0.00  0.00    +0.012 C 
ATOM     19  C   LIG    1       -4.813  -3.473   2.370  0.00  0.00    +0.013 C 
ATOM     20  C   LIG    1       -6.202  -3.881   1.831  0.00  0.00    +0.012 C 
ATOM     21  C   LIG    1       -4.835  -2.718   3.719  0.00  0.00    -0.053 C 
ENDROOT
BRANCH   9  22
ATOM     22  O   LIG    1       -0.363  -1.897   4.130  0.00  0.00    -0.391 OA
ATOM     23  H   LIG    1       -0.764  -2.331   4.887  0.00  0.00    +0.210 HD
ENDBRANCH   9  22
BRANCH  16  24
ATOM     24  O   LIG    1       -0.801   1.312  -0.104  0.00  0.00    -0.380 OA
ATOM     25  H   LIG    1       -1.752   1.188  -0.066  0.00  0.00    +0.211 HD
ENDBRANCH  16  24
BRANCH  16  26
ATOM     26  C   LIG    1        1.344   0.326  -0.302  0.00  0.00    +0.202 C 
ATOM     27  O   LIG    1        2.026  -0.273  -1.138  0.00  0.00    -0.291 OA
BRANCH  26  28
ATOM     28  C   LIG    1        1.992   1.375   0.622  0.00  0.00    +0.309 C 
BRANCH  28  29
ATOM     29  O   LIG    1        3.297   1.724   0.169  0.00  0.00    -0.457 OA
BRANCH  29  30
ATOM     30  C   LIG    1        4.050   2.607   0.858  0.00  0.00    +0.308 C 
ATOM     31  O   LIG    1        3.736   3.169   1.908  0.00  0.00    -0.251 OA
BRANCH  30  32
ATOM     32  C   LIG    1        5.398   2.873   0.186  0.00  0.00    +0.132 C 
BRANCH  32  33
ATOM     33  C   LIG    1        5.296   3.922  -0.945  0.00  0.00    +0.131 C 
BRANCH  33  34
ATOM     34  C   LIG    1        6.639   4.245  -1.610  0.00  0.00    +0.305 C 
ATOM     35  O   LIG    1        7.710   3.728  -1.295  0.00  0.00    -0.251 OA
BRANCH  34  36
ATOM     36  O   LIG    1        6.487   5.178  -2.593  0.00  0.00    -0.481 OA
ATOM     37  H   LIG    1        7.319   5.392  -3.023  0.00  0.00    +0.295 HD
ENDBRANCH  34  36
ENDBRANCH  33  34
ENDBRANCH  32  33
ENDBRANCH  30  32
ENDBRANCH  29  30
ENDBRANCH  28  29
ENDBRANCH  26  28
ENDBRANCH  16  26
TORSDOF 10
