REMARK  Name = DB14198
REMARK                            x       y       z     vdW  Elec       q    Type
REMARK                         _______ _______ _______ _____ _____    ______ ____
ROOT
ATOM      1  C   LIG    1       -2.550   0.622  -1.228  0.00  0.00    +0.169 C 
ATOM      2  N   LIG    1       -2.174   1.380  -0.019  0.00  0.00    -0.293 NA
ATOM      3  C   LIG    1       -2.627   0.609   1.156  0.00  0.00    +0.169 C 
ATOM      4  N   LIG    1       -2.101  -0.770   1.212  0.00  0.00    -0.293 NA
ATOM      5  C   LIG    1       -2.481  -1.448  -0.043  0.00  0.00    +0.169 C 
ATOM      6  C   LIG    1       -0.629  -0.713   1.294  0.00  0.00    +0.018 C 
ATOM      7  N   LIG    1       -0.093   0.059   0.046  0.00  0.00    +0.408 N 
ATOM      8  C   LIG    1       -0.547  -0.696  -1.245  0.00  0.00    +0.018 C 
ATOM      9  C   LIG    1       -0.704   1.497   0.031  0.00  0.00    +0.018 C 
ATOM     10  N   LIG    1       -2.021  -0.755  -1.263  0.00  0.00    -0.293 NA
ENDROOT
BRANCH   7  11
ATOM     11  C   LIG    1        1.457   0.121   0.058  0.00  0.00    -0.041 C 
BRANCH  11  12
ATOM     12  C   LIG    1        2.071   0.831   1.254  0.00  0.00    -0.033 C 
ATOM     13  C   LIG    1        2.701   2.015   1.199  0.00  0.00    +0.073 C 
ATOM     14 CL   LIG    1        3.393   2.771   2.635  0.00  0.00    -0.092 Cl
ENDBRANCH  11  12
ENDBRANCH   7  11
TORSDOF 2
