REMARK  Name = DB14799
REMARK                            x       y       z     vdW  Elec       q    Type
REMARK                         _______ _______ _______ _____ _____    ______ ____
ROOT
ATOM      1  C   LIG    1       -4.293  -1.867   1.569  0.00  0.00    +0.002 A 
ATOM      2  C   LIG    1       -4.963  -0.817   0.943  0.00  0.00    +0.028 A 
ATOM      3  C   LIG    1       -4.275   0.133   0.202  0.00  0.00    +0.045 A 
ATOM      4 CL   LIG    1       -5.186   1.415  -0.519  0.00  0.00    -0.083 Cl
ATOM      5  C   LIG    1       -2.885   0.048   0.051  0.00  0.00    -0.014 A 
ATOM      6  C   LIG    1       -2.090   1.107  -0.694  0.00  0.00    +0.056 C 
ATOM      7  C   LIG    1       -0.678   1.253  -0.099  0.00  0.00    +0.113 C 
ATOM      8  N   LIG    1       -0.009  -0.051   0.080  0.00  0.00    -0.293 N 
ATOM      9  C   LIG    1       -0.691  -1.200   0.384  0.00  0.00    +0.249 C 
ATOM     10  O   LIG    1       -0.108  -2.286   0.400  0.00  0.00    -0.270 OA
ATOM     11  C   LIG    1       -2.193  -1.041   0.620  0.00  0.00    +0.060 A 
ATOM     12  C   LIG    1       -2.897  -1.984   1.418  0.00  0.00    +0.059 A 
ATOM     13 CL   LIG    1       -2.080  -3.279   2.252  0.00  0.00    -0.082 Cl
ENDROOT
BRANCH   1  14
ATOM     14  C   LIG    1       -5.133  -2.859   2.396  0.00  0.00    +0.157 C 
BRANCH  14  15
ATOM     15  C   LIG    1       -5.652  -2.227   3.708  0.00  0.00    +0.074 C 
ATOM     16  C   LIG    1       -6.290  -3.219   4.691  0.00  0.00    +0.168 C 
ATOM     17  O   LIG    1       -5.225  -2.949   5.697  0.00  0.00    -0.379 OA
ATOM     18  C   LIG    1       -4.586  -1.964   4.781  0.00  0.00    +0.168 C 
ENDBRANCH  14  15
BRANCH  14  20
ATOM     19  C   LIG    1       -5.994  -4.148   0.549  0.00  0.00    +0.194 C 
ATOM     20  O   LIG    1       -6.274  -3.295   1.654  0.00  0.00    -0.375 OA
ENDBRANCH  14  20
ENDBRANCH   1  14
BRANCH   8  21
ATOM     21  C   LIG    1        1.464  -0.054   0.015  0.00  0.00    +0.152 C 
BRANCH  21  22
ATOM     22  C   LIG    1        2.055  -0.688  -1.254  0.00  0.00    +0.076 A 
ATOM     23  C   LIG    1        2.906  -1.875  -1.046  0.00  0.00    +0.257 A 
ATOM     24  O   LIG    1        3.174  -2.372   0.047  0.00  0.00    -0.267 OA
ATOM     25  N   LIG    1        3.413  -2.428  -2.182  0.00  0.00    -0.326 N 
ATOM     26  H   LIG    1        3.994  -3.243  -2.047  0.00  0.00    +0.169 HD
ATOM     27  C   LIG    1        3.185  -1.948  -3.444  0.00  0.00    +0.019 A 
ATOM     28  C   LIG    1        3.861  -2.736  -4.550  0.00  0.00    +0.063 C 
ATOM     29  C   LIG    1        2.419  -0.859  -3.659  0.00  0.00    +0.067 A 
ATOM     30  C   LIG    1        1.819  -0.186  -2.502  0.00  0.00    +0.132 A 
BRANCH  30  31
ATOM     31  O   LIG    1        1.025   0.917  -2.609  0.00  0.00    -0.495 OA
ATOM     32  C   LIG    1        0.698   1.413  -3.902  0.00  0.00    +0.277 C 
ENDBRANCH  30  31
ENDBRANCH  21  22
ENDBRANCH   8  21
TORSDOF 6
