REMARK  Name = DB14528
REMARK                            x       y       z     vdW  Elec       q    Type
REMARK                         _______ _______ _______ _____ _____    ______ ____
ROOT
ATOM      1  C   LIG    1        1.451   0.129   0.031  0.00  0.00    +0.185 C 
ENDROOT
BRANCH   1   2
ATOM      2  O   LIG    1        1.964   0.785   1.184  0.00  0.00    -0.386 OA
ATOM      3  H   LIG    1        2.921   0.817   1.113  0.00  0.00    +0.210 HD
ENDBRANCH   1   2
BRANCH   1   4
ATOM      4  C   LIG    1       -0.110   0.060   0.080  0.00  0.00    +0.177 C 
BRANCH   4   5
ATOM      5  O   LIG    1       -0.676   1.355  -0.039  0.00  0.00    -0.386 OA
ATOM      6  H   LIG    1       -0.225   1.815  -0.752  0.00  0.00    +0.210 HD
ENDBRANCH   4   5
BRANCH   4   7
ATOM      7  C   LIG    1       -0.707  -0.659   1.331  0.00  0.00    +0.171 C 
BRANCH   7   8
ATOM      8  O   LIG    1       -0.116  -1.940   1.470  0.00  0.00    -0.387 OA
ATOM      9  H   LIG    1        0.836  -1.829   1.525  0.00  0.00    +0.210 HD
ENDBRANCH   7   8
BRANCH   7  10
ATOM     10  C   LIG    1       -2.242  -0.868   1.288  0.00  0.00    +0.189 C 
BRANCH  10  11
ATOM     11  O   LIG    1       -2.958   0.320   1.562  0.00  0.00    -0.392 OA
ATOM     12  H   LIG    1       -3.897   0.129   1.516  0.00  0.00    +0.210 HD
ENDBRANCH  10  11
ENDBRANCH   7  10
ENDBRANCH   4   7
ENDBRANCH   1   4
BRANCH   1  13
ATOM     13  C   LIG    1        2.061   0.706  -1.293  0.00  0.00    +0.254 C 
BRANCH  13  14
ATOM     14  O   LIG    1        1.687   2.066  -1.499  0.00  0.00    -0.378 OA
ATOM     15  H   LIG    1        2.490   2.595  -1.514  0.00  0.00    +0.211 HD
ENDBRANCH  13  14
BRANCH  13  16
ATOM     16  C   LIG    1        3.612   0.519  -1.357  0.00  0.00    +0.336 C 
ATOM     17  O   LIG    1        4.036  -0.660  -1.399  0.00  0.00    -0.248 OA
BRANCH  16  18
ATOM     18  O   LIG    1        4.368   1.520  -1.370  0.00  0.00    -0.479 OA
ATOM     19  H   LIG    1        4.004   2.383  -1.337  0.00  0.00    +0.295 HD
ENDBRANCH  16  18
ENDBRANCH  13  16
ENDBRANCH   1  13
TORSDOF 11
