REMARK  Name = DB14882
REMARK                            x       y       z     vdW  Elec       q    Type
REMARK                         _______ _______ _______ _____ _____    ______ ____
ROOT
ATOM      1  C   LIG    1       -3.232   4.158  -0.039  0.00  0.00    +0.130 A 
ATOM      2  C   LIG    1       -3.859   2.891  -0.152  0.00  0.00    +0.050 A 
ATOM      3  C   LIG    1       -3.430   1.518  -0.117  0.00  0.00    +0.024 A 
ATOM      4  C   LIG    1       -2.196   0.804  -0.057  0.00  0.00    +0.062 A 
ATOM      5  C   LIG    1       -0.752   1.198  -0.138  0.00  0.00    +0.264 A 
ATOM      6  N   LIG    1       -0.045   0.049   0.024  0.00  0.00    -0.261 N 
ATOM      7  C   LIG    1       -0.815  -1.055   0.168  0.00  0.00    +0.263 A 
ATOM      8  O   LIG    1       -0.430  -2.213   0.336  0.00  0.00    -0.267 OA
ATOM      9  O   LIG    1       -0.254   2.303  -0.333  0.00  0.00    -0.267 OA
ATOM     10  C   LIG    1       -2.214  -0.568   0.074  0.00  0.00    +0.056 A 
ATOM     11  C   LIG    1       -3.394  -1.306   0.097  0.00  0.00    -0.029 A 
ATOM     12  C   LIG    1       -3.601  -2.797   0.276  0.00  0.00    +0.036 C 
ATOM     13  C   LIG    1       -5.087  -3.009  -0.029  0.00  0.00    +0.009 C 
ATOM     14  C   LIG    1       -5.768  -1.648   0.112  0.00  0.00    +0.038 C 
ATOM     15  C   LIG    1       -4.625  -0.666  -0.002  0.00  0.00    -0.020 A 
ATOM     16  C   LIG    1       -4.627   0.728  -0.129  0.00  0.00    +0.052 A 
ATOM     17  N   LIG    1       -5.697   1.573  -0.289  0.00  0.00    -0.354 N 
ATOM     18  H   LIG    1       -6.659   1.276  -0.357  0.00  0.00    +0.166 HD
ATOM     19  C   LIG    1       -5.276   2.878  -0.336  0.00  0.00    +0.051 A 
ATOM     20  C   LIG    1       -6.040   4.038  -0.498  0.00  0.00    +0.026 A 
ATOM     21  C   LIG    1       -5.368   5.253  -0.446  0.00  0.00    +0.006 A 
ATOM     22  C   LIG    1       -4.002   5.318  -0.209  0.00  0.00    +0.046 A 
ENDROOT
BRANCH   1  24
ATOM     23  C   LIG    1       -1.215   5.409   0.429  0.00  0.00    +0.277 C 
ATOM     24  O   LIG    1       -1.899   4.168   0.295  0.00  0.00    -0.494 OA
ENDBRANCH   1  24
BRANCH   6  25
ATOM     25  C   LIG    1        1.431   0.002   0.072  0.00  0.00    +0.215 C 
BRANCH  25  26
ATOM     26  N   LIG    1        2.040   0.523   1.307  0.00  0.00    -0.288 NA
ATOM     27  C   LIG    1        3.496   0.711   1.220  0.00  0.00    +0.067 C 
ATOM     28  C   LIG    1        4.270  -0.632   1.215  0.00  0.00    -0.064 C 
ATOM     29  N   LIG    1        3.907  -1.423   2.493  0.00  0.00    +0.379 N 
ATOM     30  H   LIG    1        4.200  -0.878   3.293  0.00  0.00    -0.082 HD
ATOM     31  C   LIG    1        4.624  -2.786   2.515  0.00  0.00    -0.096 C 
ATOM     32  C   LIG    1        2.376  -1.613   2.579  0.00  0.00    -0.064 C 
ATOM     33  C   LIG    1        1.704  -0.220   2.531  0.00  0.00    +0.067 C 
ENDBRANCH  25  26
ENDBRANCH   6  25
TORSDOF 3
