REMARK  Name = DB14189
REMARK                            x       y       z     vdW  Elec       q    Type
REMARK                         _______ _______ _______ _____ _____    ______ ____
ROOT
ATOM      1  C   LIG    1       -0.018   0.011   0.006  0.00  0.00    +0.092 C 
ENDROOT
BRANCH   1   2
ATOM      2  N   LIG    1       -0.495   1.381   0.003  0.00  0.00    -0.329 NA
ATOM      3  H   LIG    1       -1.505   1.388  -0.004  0.00  0.00    +0.118 HD
ATOM      4  H   LIG    1       -0.199   1.842  -0.845  0.00  0.00    +0.118 HD
ENDBRANCH   1   2
BRANCH   1   5
ATOM      5  C   LIG    1        1.518  -0.011   0.006  0.00  0.00    +0.092 C 
BRANCH   5   6
ATOM      6  N   LIG    1        1.994  -1.381   0.003  0.00  0.00    -0.329 NA
ATOM      7  H   LIG    1        3.005  -1.388  -0.004  0.00  0.00    +0.118 HD
ATOM      8  H   LIG    1        1.698  -1.842  -0.845  0.00  0.00    +0.118 HD
ENDBRANCH   5   6
ENDBRANCH   1   5
TORSDOF 3
