REMARK  Name = DB14982
REMARK                            x       y       z     vdW  Elec       q    Type
REMARK                         _______ _______ _______ _____ _____    ______ ____
ROOT
ATOM      1  C   LIG    1       -0.810  -1.207   0.006  0.00  0.00    +0.151 A 
ATOM      2  N   LIG    1        0.018  -0.085  -0.003  0.00  0.00    -0.277 N 
ATOM      3  C   LIG    1       -0.845   1.001   0.026  0.00  0.00    +0.166 A 
ATOM      4  N   LIG    1       -0.564   2.310   0.038  0.00  0.00    -0.227 NA
ATOM      5  C   LIG    1       -1.641   3.152   0.046  0.00  0.00    +0.073 A 
ATOM      6  C   LIG    1       -2.969   2.692   0.043  0.00  0.00    +0.030 A 
ATOM      7  C   LIG    1       -3.240   1.322   0.024  0.00  0.00    +0.033 A 
ATOM      8  C   LIG    1       -2.143   0.449   0.014  0.00  0.00    +0.109 A 
ATOM      9  N   LIG    1       -2.091  -0.914  -0.006  0.00  0.00    -0.225 NA
ENDROOT
BRANCH   1  11
ATOM     10  C   LIG    1       -0.698  -3.615  -0.870  0.00  0.00    +0.127 A 
ATOM     11  C   LIG    1       -0.329  -2.626   0.063  0.00  0.00    +0.057 A 
ATOM     12  C   LIG    1        0.531  -3.003   1.104  0.00  0.00    +0.016 A 
ATOM     13  C   LIG    1        0.999  -4.314   1.188  0.00  0.00    +0.020 A 
ATOM     14  C   LIG    1        0.587  -5.227   0.220  0.00  0.00    +0.113 A 
ATOM     15  N   LIG    1       -0.247  -4.894  -0.797  0.00  0.00    -0.240 NA
BRANCH  10  16
ATOM     16  N   LIG    1       -1.541  -3.331  -1.944  0.00  0.00    -0.343 N 
ATOM     17  H   LIG    1       -1.789  -4.069  -2.587  0.00  0.00    +0.144 HD
ATOM     18  H   LIG    1       -1.933  -2.405  -2.035  0.00  0.00    +0.144 HD
ENDBRANCH  10  16
ENDBRANCH   1  11
BRANCH   2  19
ATOM     19  C   LIG    1        1.433  -0.052  -0.007  0.00  0.00    +0.050 A 
ATOM     20  C   LIG    1        2.115   0.833   0.833  0.00  0.00    +0.026 A 
ATOM     21  C   LIG    1        3.506   0.886   0.805  0.00  0.00    +0.004 A 
ATOM     22  C   LIG    1        4.224   0.069  -0.075  0.00  0.00    -0.059 A 
ATOM     23  C   LIG    1        3.537  -0.804  -0.926  0.00  0.00    +0.004 A 
ATOM     24  C   LIG    1        2.147  -0.859  -0.898  0.00  0.00    +0.026 A 
BRANCH  22  25
ATOM     25  C   LIG    1        5.752   0.118  -0.094  0.00  0.00    -0.045 C 
ATOM     26  C   LIG    1        6.571  -1.185  -0.295  0.00  0.00    -0.008 C 
ATOM     27  C   LIG    1        7.593  -0.722   0.748  0.00  0.00    -0.002 C 
ATOM     28  C   LIG    1        6.539   0.279   1.233  0.00  0.00    -0.008 C 
BRANCH  25  29
ATOM     29  N   LIG    1        6.163   1.197  -1.121  0.00  0.00    +0.385 N 
ATOM     30  H   LIG    1        5.805   0.960  -2.035  0.00  0.00    -0.089 HD
ATOM     31  H   LIG    1        5.797   2.096  -0.844  0.00  0.00    -0.089 HD
ATOM     32  H   LIG    1        7.169   1.258  -1.173  0.00  0.00    -0.089 HD
ENDBRANCH  25  29
ENDBRANCH  22  25
ENDBRANCH   2  19
BRANCH   5  33
ATOM     33  C   LIG    1       -1.319   4.612   0.073  0.00  0.00    +0.000 A 
ATOM     34  C   LIG    1       -0.202   5.094   0.773  0.00  0.00    +0.010 A 
ATOM     35  C   LIG    1        0.093   6.454   0.796  0.00  0.00    +0.001 A 
ATOM     36  C   LIG    1       -0.728   7.349   0.116  0.00  0.00    +0.000 A 
ATOM     37  C   LIG    1       -1.839   6.893  -0.586  0.00  0.00    +0.001 A 
ATOM     38  C   LIG    1       -2.132   5.532  -0.605  0.00  0.00    +0.010 A 
ENDBRANCH   5  33
TORSDOF 6
