REMARK  Name = DB14785
REMARK                            x       y       z     vdW  Elec       q    Type
REMARK                         _______ _______ _______ _____ _____    ______ ____
ROOT
ATOM      1  C   LIG    1       -1.736  -1.267  -0.383  0.00  0.00    +0.098 A 
ATOM      2  C   LIG    1       -2.658  -0.116  -0.491  0.00  0.00    +0.272 A 
ATOM      3  O   LIG    1       -3.848  -0.248  -0.806  0.00  0.00    -0.266 OA
ATOM      4  N   LIG    1       -2.091   1.116  -0.218  0.00  0.00    -0.316 N 
ATOM      5  C   LIG    1       -2.943   2.311  -0.313  0.00  0.00    +0.152 C 
ATOM      6  C   LIG    1       -0.766   1.226   0.135  0.00  0.00    +0.097 A 
ATOM      7  C   LIG    1        0.123   0.215   0.261  0.00  0.00    +0.001 A 
ATOM      8  C   LIG    1       -0.430  -1.096  -0.049  0.00  0.00    +0.038 A 
ENDROOT
BRANCH   7   9
ATOM      9  C   LIG    1        1.554   0.433   0.634  0.00  0.00    -0.006 A 
ATOM     10  C   LIG    1        2.187   1.587   0.142  0.00  0.00    +0.029 A 
ATOM     11  C   LIG    1        3.535   1.808   0.401  0.00  0.00    +0.113 A 
ATOM     12  N   LIG    1        4.292   0.950   1.116  0.00  0.00    -0.240 NA
ATOM     13  C   LIG    1        3.698  -0.165   1.617  0.00  0.00    +0.134 A 
ATOM     14  C   LIG    1        2.326  -0.457   1.429  0.00  0.00    +0.026 A 
BRANCH  13  15
ATOM     15  N   LIG    1        4.533  -1.036   2.341  0.00  0.00    -0.249 N 
ATOM     16  C   LIG    1        5.294  -1.977   1.682  0.00  0.00    +0.268 C 
ATOM     17  O   LIG    1        5.275  -2.101   0.455  0.00  0.00    -0.268 OA
ATOM     18  C   LIG    1        6.077  -2.805   2.588  0.00  0.00    +0.105 A 
ATOM     19  C   LIG    1        7.017  -3.804   2.316  0.00  0.00    +0.036 A 
ATOM     20  C   LIG    1        7.426  -4.356   3.528  0.00  0.00    -0.025 A 
ATOM     21  C   LIG    1        8.292  -5.439   4.114  0.00  0.00    +0.043 C 
ATOM     22  C   LIG    1        8.352  -5.064   5.623  0.00  0.00    -0.026 C 
ATOM     23  C   LIG    1        8.379  -6.327   6.511  0.00  0.00    +0.011 C 
ATOM     24  C   LIG    1        9.618  -4.214   5.902  0.00  0.00    +0.011 C 
ATOM     25  C   LIG    1        7.075  -4.216   5.892  0.00  0.00    +0.060 C 
ATOM     26  C   LIG    1        6.741  -3.709   4.516  0.00  0.00    +0.023 A 
ATOM     27  N   LIG    1        5.923  -2.753   3.966  0.00  0.00    -0.338 N 
ATOM     28  C   LIG    1        4.922  -1.942   4.628  0.00  0.00    +0.141 C 
ATOM     29  C   LIG    1        4.751  -0.672   3.764  0.00  0.00    +0.137 C 
ENDBRANCH  13  15
BRANCH  14  30
ATOM     30  C   LIG    1        1.708  -1.666   2.148  0.00  0.00    +0.195 C 
BRANCH  30  31
ATOM     31  O   LIG    1        2.024  -2.902   1.540  0.00  0.00    -0.390 OA
ATOM     32  H   LIG    1        1.722  -2.880   0.629  0.00  0.00    +0.210 HD
ENDBRANCH  30  31
ENDBRANCH  14  30
ENDBRANCH   7   9
BRANCH   1  33
ATOM     33  N   LIG    1       -2.318  -2.495  -0.687  0.00  0.00    -0.295 N 
ATOM     34  H   LIG    1       -3.155  -2.486  -1.253  0.00  0.00    +0.154 HD
BRANCH  33  38
ATOM     35  C   LIG    1       -1.189  -6.384   0.400  0.00  0.00    +0.048 A 
ATOM     36  C   LIG    1       -0.680  -5.242   1.030  0.00  0.00    +0.136 A 
ATOM     37  N   LIG    1       -1.031  -3.978   0.691  0.00  0.00    -0.238 NA
ATOM     38  C   LIG    1       -1.924  -3.795  -0.319  0.00  0.00    +0.123 A 
ATOM     39  C   LIG    1       -2.488  -4.878  -0.998  0.00  0.00    +0.045 A 
ATOM     40  C   LIG    1       -2.109  -6.174  -0.641  0.00  0.00    +0.028 A 
BRANCH  35  43
ATOM     41  C   LIG    1        1.767  -7.093   0.529  0.00  0.00    +0.026 C 
ATOM     42  C   LIG    1        0.617  -8.116   0.391  0.00  0.00    +0.054 C 
ATOM     43  N   LIG    1       -0.746  -7.652   0.778  0.00  0.00    -0.329 N 
ATOM     44  C   LIG    1       -1.714  -8.761   0.673  0.00  0.00    +0.087 C 
ATOM     45  C   LIG    1       -1.322 -10.008   1.480  0.00  0.00    -0.059 C 
ATOM     46  N   LIG    1        0.004 -10.537   0.915  0.00  0.00    +0.387 N 
ATOM     47  H   LIG    1       -0.117 -10.723  -0.070  0.00  0.00    -0.081 HD
ATOM     48  C   LIG    1        1.066  -9.434   1.086  0.00  0.00    -0.056 C 
BRANCH  46  49
ATOM     49  C   LIG    1        0.432 -11.838   1.633  0.00  0.00    -0.016 C 
ATOM     50  C   LIG    1       -0.416 -13.083   1.339  0.00  0.00    +0.147 C 
ATOM     51  O   LIG    1        0.768 -13.790   0.773  0.00  0.00    -0.383 OA
ATOM     52  C   LIG    1        1.621 -12.593   1.023  0.00  0.00    +0.147 C 
ENDBRANCH  46  49
ENDBRANCH  35  43
ENDBRANCH  33  38
ENDBRANCH   1  33
TORSDOF 8
