REMARK  Name = DB14638
REMARK                            x       y       z     vdW  Elec       q    Type
REMARK                         _______ _______ _______ _____ _____    ______ ____
ROOT
ATOM      1  C   LIG    1        1.420  -0.070   0.027  0.00  0.00    +0.036 A 
ATOM      2  C   LIG    1        2.048   0.026   1.273  0.00  0.00    +0.027 A 
ATOM      3  C   LIG    1        3.436  -0.036   1.350  0.00  0.00    +0.048 A 
ATOM      4  C   LIG    1        4.193  -0.210   0.188  0.00  0.00    +0.132 A 
ATOM      5  C   LIG    1        3.562  -0.305  -1.055  0.00  0.00    +0.048 A 
ATOM      6  C   LIG    1        2.174  -0.242  -1.137  0.00  0.00    +0.027 A 
ENDROOT
BRANCH   1   8
ATOM      7  C   LIG    1       -0.663   1.167  -0.042  0.00  0.00    +0.252 C 
ATOM      8  N   LIG    1        0.022  -0.012  -0.060  0.00  0.00    -0.272 N 
ATOM      9  C   LIG    1       -0.687  -1.296  -0.002  0.00  0.00    +0.138 C 
ATOM     10  O   LIG    1       -1.893   1.208   0.054  0.00  0.00    -0.272 OA
BRANCH   7  12
ATOM     11 CL   LIG    1        0.349   3.221   1.459  0.00  0.00    -0.094 Cl
ATOM     12  C   LIG    1        0.095   2.509  -0.156  0.00  0.00    +0.257 C 
ATOM     13 CL   LIG    1       -0.767   3.677  -1.196  0.00  0.00    -0.094 Cl
ENDBRANCH   7  12
ENDBRANCH   1   8
BRANCH   4  14
ATOM     14  O   LIG    1        5.567  -0.249   0.261  0.00  0.00    -0.420 OA
BRANCH  14  15
ATOM     15  C   LIG    1        6.192  -1.431   0.529  0.00  0.00    +0.380 C 
ATOM     16  O   LIG    1        5.642  -2.523   0.699  0.00  0.00    -0.241 OA
BRANCH  15  17
ATOM     17  C   LIG    1        7.636  -1.242   0.593  0.00  0.00    +0.212 A 
ATOM     18  C   LIG    1        8.450  -0.125   0.427  0.00  0.00    +0.056 A 
ATOM     19  C   LIG    1        9.766  -0.554   0.613  0.00  0.00    +0.042 A 
ATOM     20  C   LIG    1        9.699  -1.911   0.882  0.00  0.00    +0.196 A 
ATOM     21  O   LIG    1        8.407  -2.329   0.870  0.00  0.00    -0.456 OA
ENDBRANCH  15  17
ENDBRANCH  14  15
ENDBRANCH   4  14
TORSDOF 5
