REMARK  Name = DB14082
REMARK                            x       y       z     vdW  Elec       q    Type
REMARK                         _______ _______ _______ _____ _____    ______ ____
ROOT
ATOM      1  C   LIG    1        1.393   0.746  -0.098  0.00  0.00    +0.200 C 
ENDROOT
BRANCH   1   3
ATOM      2  C   LIG    1       -0.904   1.502  -0.700  0.00  0.00    +0.224 C 
ATOM      3  N   LIG    1        0.015   0.532  -0.546  0.00  0.00    -0.306 N 
ATOM      4  H   LIG    1       -0.275  -0.430  -0.646  0.00  0.00    +0.149 HD
ATOM      5  O   LIG    1       -0.650   2.702  -0.596  0.00  0.00    -0.275 OA
BRANCH   2   6
ATOM      6  C   LIG    1       -2.338   1.036  -0.957  0.00  0.00    +0.173 C 
BRANCH   6   7
ATOM      7  S   LIG    1       -3.378   1.248   0.526  0.00  0.00    -0.074 S 
BRANCH   7   8
ATOM      8  C   LIG    1       -3.006  -0.342   1.406  0.00  0.00    +0.220 C 
ATOM      9  O   LIG    1       -2.323  -1.226   0.886  0.00  0.00    -0.280 OA
BRANCH   8  10
ATOM     10  C   LIG    1       -3.697  -0.531   2.720  0.00  0.00    +0.028 A 
ATOM     11  C   LIG    1       -4.040   0.560   3.534  0.00  0.00    +0.012 A 
ATOM     12  C   LIG    1       -4.664   0.353   4.761  0.00  0.00    +0.001 A 
ATOM     13  C   LIG    1       -4.939  -0.944   5.187  0.00  0.00    +0.000 A 
ATOM     14  C   LIG    1       -4.585  -2.037   4.402  0.00  0.00    +0.001 A 
ATOM     15  C   LIG    1       -3.961  -1.831   3.174  0.00  0.00    +0.012 A 
ENDBRANCH   8  10
ENDBRANCH   7   8
ENDBRANCH   6   7
ENDBRANCH   2   6
ENDBRANCH   1   3
BRANCH   1  16
ATOM     16  C   LIG    1        1.504   0.816   1.439  0.00  0.00    +0.231 C 
ATOM     17  N   LIG    1        0.373   0.857   2.168  0.00  0.00    -0.305 N 
ATOM     18  H   LIG    1       -0.513   0.846   1.683  0.00  0.00    +0.149 HD
ATOM     19  O   LIG    1        2.623   0.820   1.950  0.00  0.00    -0.274 OA
BRANCH  17  20
ATOM     20  C   LIG    1        0.307   0.865   3.627  0.00  0.00    +0.200 C 
BRANCH  20  21
ATOM     21  C   LIG    1        0.085  -0.559   4.153  0.00  0.00    +0.231 C 
ATOM     22  N   LIG    1        0.327  -0.740   5.462  0.00  0.00    -0.304 N 
ATOM     23  H   LIG    1        0.653   0.044   6.009  0.00  0.00    +0.149 HD
ATOM     24  O   LIG    1       -0.322  -1.458   3.416  0.00  0.00    -0.274 OA
BRANCH  22  25
ATOM     25  C   LIG    1        0.129  -2.002   6.186  0.00  0.00    +0.224 C 
BRANCH  25  26
ATOM     26  C   LIG    1       -1.283  -2.051   6.803  0.00  0.00    +0.322 C 
ATOM     27  O   LIG    1       -2.098  -1.150   6.762  0.00  0.00    -0.249 OA
BRANCH  26  28
ATOM     28  O   LIG    1       -1.471  -3.257   7.410  0.00  0.00    -0.480 OA
ATOM     29  H   LIG    1       -2.340  -3.332   7.810  0.00  0.00    +0.295 HD
ENDBRANCH  26  28
ENDBRANCH  25  26
ENDBRANCH  22  25
ENDBRANCH  20  21
ENDBRANCH  17  20
ENDBRANCH   1  16
TORSDOF 11
