REMARK  Name = DB14993
REMARK                            x       y       z     vdW  Elec       q    Type
REMARK                         _______ _______ _______ _____ _____    ______ ____
ROOT
ATOM      1  C   LIG    1       -2.313  -3.760  -0.274  0.00  0.00    +0.144 A 
ATOM      2  C   LIG    1       -3.040  -2.561  -0.237  0.00  0.00    +0.076 A 
ATOM      3  C   LIG    1       -2.402  -1.324   0.007  0.00  0.00    +0.076 A 
ATOM      4  N   LIG    1       -3.173  -0.207   0.027  0.00  0.00    -0.253 NA
ATOM      5  C   LIG    1       -2.574   0.983   0.247  0.00  0.00    +0.132 A 
ATOM      6  C   LIG    1       -1.207   1.144   0.467  0.00  0.00    +0.091 A 
ATOM      7  C   LIG    1       -0.377  -0.005   0.489  0.00  0.00    +0.060 A 
ATOM      8  C   LIG    1       -0.992  -1.278   0.228  0.00  0.00    +0.025 A 
ATOM      9  C   LIG    1       -0.278  -2.509   0.192  0.00  0.00    +0.039 A 
ATOM     10  C   LIG    1       -0.927  -3.722  -0.071  0.00  0.00    +0.077 A 
ENDROOT
BRANCH  10  11
ATOM     11  N   LIG    1       -0.223  -4.942  -0.087  0.00  0.00    -0.279 N 
ATOM     12  H   LIG    1       -0.755  -5.747   0.212  0.00  0.00    +0.155 HD
ATOM     13  C   LIG    1        1.010  -5.169  -0.589  0.00  0.00    +0.241 C 
ATOM     14  O   LIG    1        1.714  -4.309  -1.125  0.00  0.00    -0.271 OA
BRANCH  13  15
ATOM     15  C   LIG    1        1.431  -6.542  -0.426  0.00  0.00    +0.062 C 
ATOM     16  C   LIG    1        2.618  -6.999  -0.875  0.00  0.00    -0.037 C 
BRANCH  16  17
ATOM     17  C   LIG    1        3.095  -8.432  -0.719  0.00  0.00    -0.045 C 
ATOM     18  N   LIG    1        4.334  -8.529   0.187  0.00  0.00    +0.382 N 
ATOM     19  H   LIG    1        4.999  -7.828  -0.111  0.00  0.00    -0.081 HD
ATOM     20  C   LIG    1        4.043  -8.328   1.687  0.00  0.00    -0.095 C 
ATOM     21  C   LIG    1        4.935  -9.908  -0.142  0.00  0.00    -0.078 C 
ATOM     22  C   LIG    1        4.588 -10.151  -1.616  0.00  0.00    -0.020 C 
ATOM     23  C   LIG    1        3.586  -9.067  -2.024  0.00  0.00    -0.013 C 
ENDBRANCH  16  17
ENDBRANCH  13  15
ENDBRANCH  10  11
BRANCH   7  24
ATOM     24  N   LIG    1        1.020   0.031   0.708  0.00  0.00    -0.313 N 
ATOM     25  H   LIG    1        1.513  -0.773   0.346  0.00  0.00    +0.152 HD
BRANCH  24  26
ATOM     26  C   LIG    1        1.830   0.894   1.459  0.00  0.00    +0.033 A 
ATOM     27  C   LIG    1        3.078   1.264   0.957  0.00  0.00    +0.047 A 
ATOM     28  C   LIG    1        3.918   2.100   1.694  0.00  0.00    +0.084 A 
ATOM     29 CL   LIG    1        5.450   2.543   1.026  0.00  0.00    -0.080 Cl
ATOM     30  C   LIG    1        3.527   2.572   2.955  0.00  0.00    +0.139 A 
ATOM     31  C   LIG    1        2.275   2.183   3.460  0.00  0.00    +0.049 A 
ATOM     32  C   LIG    1        1.439   1.346   2.722  0.00  0.00    +0.027 A 
BRANCH  30  33
ATOM     33  O   LIG    1        4.410   3.396   3.630  0.00  0.00    -0.484 OA
BRANCH  33  34
ATOM     34  C   LIG    1        4.052   3.919   4.910  0.00  0.00    +0.284 C 
BRANCH  34  35
ATOM     35  C   LIG    1        5.159   4.806   5.468  0.00  0.00    +0.078 A 
ATOM     36  C   LIG    1        5.318   4.955   6.850  0.00  0.00    +0.027 A 
ATOM     37  C   LIG    1        6.337   5.786   7.322  0.00  0.00    +0.003 A 
ATOM     38  C   LIG    1        7.163   6.447   6.411  0.00  0.00    +0.020 A 
ATOM     39  C   LIG    1        6.938   6.254   5.047  0.00  0.00    +0.111 A 
ATOM     40  N   LIG    1        5.953   5.451   4.569  0.00  0.00    -0.256 NA
ENDBRANCH  34  35
ENDBRANCH  33  34
ENDBRANCH  30  33
ENDBRANCH  24  26
ENDBRANCH   7  24
BRANCH   6  41
ATOM     41  C   LIG    1       -0.723   2.516   0.602  0.00  0.00    +0.103 C 
ATOM     42  N   LIG    1       -0.342   3.604   0.708  0.00  0.00    -0.191 NA
ENDBRANCH   6  41
BRANCH   1  43
ATOM     43  O   LIG    1       -2.897  -4.995  -0.505  0.00  0.00    -0.490 OA
BRANCH  43  45
ATOM     44  C   LIG    1       -4.651  -6.548  -1.037  0.00  0.00    +0.048 C 
ATOM     45  C   LIG    1       -4.293  -5.082  -0.774  0.00  0.00    +0.226 C 
ENDBRANCH  43  45
ENDBRANCH   1  43
TORSDOF 11
