REMARK  Name = DB14820
REMARK                            x       y       z     vdW  Elec       q    Type
REMARK                         _______ _______ _______ _____ _____    ______ ____
ROOT
ATOM      1  C   LIG    1       -0.161   1.315  -0.030  0.00  0.00    +0.094 C 
ATOM      2  N   LIG    1        0.224   0.312   0.661  0.00  0.00    -0.089 NA
ENDROOT
BRANCH   1   3
ATOM      3  C   LIG    1       -1.584   1.601  -0.071  0.00  0.00    +0.079 C 
ATOM      4  C   LIG    1       -2.074   2.885   0.503  0.00  0.00    +0.168 C 
ATOM      5  O   LIG    1       -1.341   3.719   1.035  0.00  0.00    -0.292 OA
ATOM      6  C   LIG    1       -3.579   3.187   0.363  0.00  0.00    +0.084 C 
ATOM      7  C   LIG    1       -4.471   1.920   0.429  0.00  0.00    +0.008 C 
ATOM      8  C   LIG    1       -4.001   0.942  -0.681  0.00  0.00    +0.078 C 
ATOM      9  C   LIG    1       -2.487   0.742  -0.623  0.00  0.00    +0.107 C 
BRANCH   7  10
ATOM     10  C   LIG    1       -4.538   1.257   1.853  0.00  0.00    +0.003 C 
ATOM     11  C   LIG    1       -4.760   2.294   2.989  0.00  0.00    +0.073 C 
ATOM     12  S   LIG    1       -4.701   1.588   4.668  0.00  0.00    -0.160 S 
ATOM     13  C   LIG    1       -5.971   0.310   4.454  0.00  0.00    +0.069 C 
ATOM     14  C   LIG    1       -5.659  -0.611   3.267  0.00  0.00    +0.011 C 
ATOM     15  C   LIG    1       -5.628   0.153   1.934  0.00  0.00    +0.005 C 
ENDBRANCH   7  10
BRANCH   9  16
ATOM     16  O   LIG    1       -2.176  -0.446  -1.217  0.00  0.00    -0.510 OA
ATOM     17  H   LIG    1       -2.979  -0.870  -1.527  0.00  0.00    +0.292 HD
ENDBRANCH   9  16
ENDBRANCH   1   3
BRANCH   1  18
ATOM     18  C   LIG    1        0.746   2.205  -0.905  0.00  0.00    +0.059 C 
BRANCH  18  20
ATOM     19  C   LIG    1        2.602   3.968  -0.976  0.00  0.00    +0.004 C 
ATOM     20  C   LIG    1        1.731   3.071  -0.086  0.00  0.00    +0.003 C 
ENDBRANCH  18  20
ENDBRANCH   1  18
BRANCH   2  21
ATOM     21  O   LIG    1        1.609   0.082   0.537  0.00  0.00    -0.390 OA
BRANCH  21  22
ATOM     22  C   LIG    1        1.911  -1.280   0.830  0.00  0.00    +0.306 C 
BRANCH  22  23
ATOM     23  C   LIG    1        1.353  -2.246  -0.241  0.00  0.00    +0.210 C 
ATOM     24  C   LIG    1        1.853  -3.687  -0.047  0.00  0.00    +0.055 C 
BRANCH  23  25
ATOM     25  O   LIG    1        1.795  -1.757  -1.510  0.00  0.00    -0.486 OA
BRANCH  25  26
ATOM     26  C   LIG    1        0.963  -1.816  -2.612  0.00  0.00    +0.121 A 
ATOM     27  C   LIG    1       -0.177  -2.630  -2.704  0.00  0.00    +0.047 A 
ATOM     28  C   LIG    1       -0.962  -2.609  -3.854  0.00  0.00    +0.023 A 
ATOM     29  C   LIG    1       -0.609  -1.782  -4.918  0.00  0.00    +0.041 A 
ATOM     30 CL   LIG    1       -1.585  -1.752  -6.341  0.00  0.00    -0.084 Cl
ATOM     31  C   LIG    1        0.529  -0.982  -4.843  0.00  0.00    +0.023 A 
ATOM     32  C   LIG    1        1.313  -1.005  -3.693  0.00  0.00    +0.047 A 
ENDBRANCH  25  26
ENDBRANCH  23  25
ENDBRANCH  22  23
ENDBRANCH  21  22
ENDBRANCH   2  21
TORSDOF 10
