REMARK  Name = DB14090
REMARK                            x       y       z     vdW  Elec       q    Type
REMARK                         _______ _______ _______ _____ _____    ______ ____
ROOT
ATOM      1  C   LIG    1       -0.083   0.035   0.000  0.00  0.00    +0.193 C 
ATOM      2  S   LIG    1        1.802   0.028   0.000  0.00  0.00    -0.037 S 
ATOM      3  O   LIG    1        2.258   0.603   1.270  0.00  0.00    -0.175 OA
ATOM      4  O   LIG    1        2.258   0.603  -1.269  0.00  0.00    -0.175 OA
ATOM      5  C   LIG    1        2.240  -1.805   0.000  0.00  0.00    +0.193 C 
ENDROOT
TORSDOF 0
