REMARK  Name = DB14126
REMARK                            x       y       z     vdW  Elec       q    Type
REMARK                         _______ _______ _______ _____ _____    ______ ____
ROOT
ATOM      1  N   LIG    1        1.649  -1.771   1.642  0.00  0.00    -0.312 N 
ATOM      2  C   LIG    1        2.092  -1.428   2.866  0.00  0.00    +0.201 A 
ATOM      3  N   LIG    1        1.431  -2.013   3.835  0.00  0.00    -0.231 NA
ATOM      4  C   LIG    1        0.507  -2.762   3.207  0.00  0.00    +0.147 A 
ATOM      5  C   LIG    1       -0.510  -3.610   3.704  0.00  0.00    +0.147 A 
ATOM      6  N   LIG    1       -1.308  -4.256   2.809  0.00  0.00    -0.219 NA
ATOM      7  C   LIG    1       -1.085  -4.045   1.504  0.00  0.00    +0.225 A 
ATOM      8  N   LIG    1       -0.159  -3.273   0.913  0.00  0.00    -0.216 NA
ATOM      9  C   LIG    1        0.616  -2.643   1.831  0.00  0.00    +0.165 A 
ENDROOT
BRANCH   5  10
ATOM     10  N   LIG    1       -0.731  -3.816   5.065  0.00  0.00    -0.341 N 
ATOM     11  H   LIG    1       -1.488  -4.415   5.357  0.00  0.00    +0.144 HD
ATOM     12  H   LIG    1       -0.165  -3.317   5.736  0.00  0.00    +0.144 HD
ENDBRANCH   5  10
BRANCH   1  13
ATOM     13  C   LIG    1        2.159  -1.263   0.357  0.00  0.00    +0.156 C 
BRANCH  13  14
ATOM     14  C   LIG    1        1.419   0.019  -0.075  0.00  0.00    +0.136 C 
ATOM     15  C   LIG    1        1.980   0.583  -1.392  0.00  0.00    +0.040 C 
BRANCH  14  16
ATOM     16  O   LIG    1        0.035  -0.286  -0.244  0.00  0.00    -0.363 OA
BRANCH  16  17
ATOM     17  C   LIG    1       -0.877   0.791  -0.046  0.00  0.00    +0.286 C 
BRANCH  17  18
ATOM     18  P   LIG    1       -1.580   0.738   1.700  0.00  0.00    +0.353 P 
ATOM     19  O   LIG    1       -2.019  -0.673   2.022  0.00  0.00    -0.256 OA
BRANCH  18  20
ATOM     20  O   LIG    1       -0.117   1.039   2.539  0.00  0.00    -0.323 OA
ATOM     21  H   LIG    1        0.222   1.935   2.725  0.00  0.00    +0.220 HD
ENDBRANCH  18  20
BRANCH  18  22
ATOM     22  O   LIG    1       -2.476   1.939   1.900  0.00  0.00    -0.323 OA
ATOM     23  H   LIG    1       -3.316   1.798   1.435  0.00  0.00    +0.220 HD
ENDBRANCH  18  22
ENDBRANCH  17  18
ENDBRANCH  16  17
ENDBRANCH  14  16
ENDBRANCH  13  14
ENDBRANCH   1  13
TORSDOF 8
