REMARK  Name = DB14783
REMARK                            x       y       z     vdW  Elec       q    Type
REMARK                         _______ _______ _______ _____ _____    ______ ____
ROOT
ATOM      1  O   LIG    1        2.100  -0.900   0.000  0.00  0.00    -0.460 OA
ENDROOT
BRANCH   1   2
ATOM      2  C   LIG    1        1.474   0.297   0.000  0.00  0.00    +0.332 C 
ATOM      3  O   LIG    1        2.050   1.389   0.000  0.00  0.00    -0.246 OA
BRANCH   2   5
ATOM      4  C   LIG    1       -0.817   1.205   0.000  0.00  0.00    +0.098 C 
ATOM      5  C   LIG    1        0.023   0.146   0.000  0.00  0.00    +0.098 C 
BRANCH   4   6
ATOM      6  C   LIG    1       -2.268   1.054   0.000  0.00  0.00    +0.332 C 
ATOM      7  O   LIG    1       -2.844  -0.038   0.000  0.00  0.00    -0.246 OA
BRANCH   6   9
ATOM      8  C   LIG    1       -4.313   2.329   0.000  0.00  0.00    +0.280 C 
ATOM      9  O   LIG    1       -2.895   2.251   0.000  0.00  0.00    -0.465 OA
ENDBRANCH   6   9
ENDBRANCH   4   6
ENDBRANCH   2   5
ENDBRANCH   1   2
BRANCH   1  10
ATOM     10  C   LIG    1        3.519  -0.981   0.000  0.00  0.00    +0.252 C 
BRANCH  10  11
ATOM     11  C   LIG    1        3.941  -2.458   0.000  0.00  0.00    +0.157 C 
BRANCH  11  12
ATOM     12  N   LIG    1        5.400  -2.634   0.000  0.00  0.00    -0.239 N 
ATOM     13  C   LIG    1        6.122  -2.728   1.143  0.00  0.00    +0.222 C 
ATOM     14  O   LIG    1        5.710  -2.678   2.303  0.00  0.00    -0.275 OA
ATOM     15  C   LIG    1        7.577  -2.909   0.753  0.00  0.00    +0.105 C 
ATOM     16  C   LIG    1        7.577  -2.909  -0.753  0.00  0.00    +0.105 C 
ATOM     17  C   LIG    1        6.122  -2.728  -1.143  0.00  0.00    +0.222 C 
ATOM     18  O   LIG    1        5.710  -2.678  -2.303  0.00  0.00    -0.275 OA
ENDBRANCH  11  12
ENDBRANCH  10  11
ENDBRANCH   1  10
TORSDOF 7
