REMARK  Name = DB14975
REMARK                            x       y       z     vdW  Elec       q    Type
REMARK                         _______ _______ _______ _____ _____    ______ ____
ROOT
ATOM      1  C   LIG    1       -0.779   1.148  -0.165  0.00  0.00    +0.095 A 
ATOM      2  N   LIG    1       -2.139   1.086  -0.214  0.00  0.00    -0.253 NA
ATOM      3  C   LIG    1       -2.738  -0.129  -0.174  0.00  0.00    +0.111 A 
ATOM      4  C   LIG    1       -2.022  -1.320  -0.091  0.00  0.00    +0.020 A 
ATOM      5  C   LIG    1       -0.630  -1.254  -0.038  0.00  0.00    +0.010 A 
ATOM      6  C   LIG    1        0.019  -0.010  -0.065  0.00  0.00    +0.017 A 
ENDROOT
BRANCH   1   8
ATOM      7  N   LIG    1       -0.660   3.658   0.434  0.00  0.00    -0.260 N 
ATOM      8  C   LIG    1       -0.220   2.537  -0.255  0.00  0.00    +0.088 A 
ATOM      9  C   LIG    1        0.830   3.019  -1.027  0.00  0.00    +0.051 A 
ATOM     10  C   LIG    1        0.915   4.385  -0.768  0.00  0.00    +0.135 A 
ATOM     11  N   LIG    1        0.018   4.774   0.101  0.00  0.00    -0.179 NA
BRANCH   7  13
ATOM     12  C   LIG    1       -2.965   4.454   0.832  0.00  0.00    +0.032 C 
ATOM     13  C   LIG    1       -1.733   3.758   1.440  0.00  0.00    +0.102 C 
ATOM     14  C   LIG    1       -1.237   4.456   2.725  0.00  0.00    +0.032 C 
ENDBRANCH   7  13
ENDBRANCH   1   8
BRANCH   6  15
ATOM     15  C   LIG    1        1.544   0.064   0.012  0.00  0.00    +0.266 C 
BRANCH  15  16
ATOM     16  O   LIG    1        2.081  -1.091   0.654  0.00  0.00    -0.486 OA
BRANCH  16  17
ATOM     17  C   LIG    1        3.451  -1.241   0.799  0.00  0.00    +0.135 A 
ATOM     18  C   LIG    1        3.950  -2.419   1.406  0.00  0.00    +0.097 A 
ATOM     19  C   LIG    1        5.344  -2.577   1.561  0.00  0.00    +0.131 A 
ATOM     20  C   LIG    1        6.220  -1.585   1.123  0.00  0.00    +0.046 A 
ATOM     21  C   LIG    1        5.731  -0.430   0.529  0.00  0.00    +0.007 A 
ATOM     22  C   LIG    1        4.361  -0.259   0.369  0.00  0.00    +0.046 A 
BRANCH  18  23
ATOM     23  C   LIG    1        3.032  -3.508   1.884  0.00  0.00    +0.266 C 
ATOM     24  O   LIG    1        1.804  -3.505   1.806  0.00  0.00    -0.295 OA
ENDBRANCH  18  23
BRANCH  19  25
ATOM     25  O   LIG    1        5.903  -3.693   2.139  0.00  0.00    -0.506 OA
ATOM     26  H   LIG    1        6.861  -3.652   2.173  0.00  0.00    +0.292 HD
ENDBRANCH  19  25
ENDBRANCH  16  17
ENDBRANCH  15  16
ENDBRANCH   6  15
TORSDOF 7
