REMARK  Name = DB14867
REMARK                            x       y       z     vdW  Elec       q    Type
REMARK                         _______ _______ _______ _____ _____    ______ ____
ROOT
ATOM      1  C   LIG    1       -0.745   1.139  -0.013  0.00  0.00    +0.132 A 
ATOM      2  C   LIG    1       -2.155   1.156  -0.046  0.00  0.00    +0.036 A 
ATOM      3  C   LIG    1       -2.851  -0.064  -0.102  0.00  0.00    +0.149 A 
ATOM      4  F   LIG    1       -4.205  -0.083  -0.121  0.00  0.00    -0.204 F 
ATOM      5  C   LIG    1       -2.157  -1.273  -0.141  0.00  0.00    +0.077 A 
ATOM      6 CL   LIG    1       -3.010  -2.775  -0.208  0.00  0.00    -0.081 Cl
ATOM      7  C   LIG    1       -0.766  -1.279  -0.131  0.00  0.00    +0.032 A 
ATOM      8  C   LIG    1       -0.047  -0.082  -0.073  0.00  0.00    +0.020 A 
ENDROOT
BRANCH   2   9
ATOM      9  C   LIG    1       -2.926   2.488  -0.023  0.00  0.00    +0.051 C 
ATOM     10  C   LIG    1       -3.846   2.765  -1.210  0.00  0.00    +0.105 C 
ATOM     11  C   LIG    1       -5.049   3.527  -0.654  0.00  0.00    +0.214 C 
ATOM     12  O   LIG    1       -5.960   4.023  -1.312  0.00  0.00    -0.276 OA
ATOM     13  N   LIG    1       -4.897   3.544   0.682  0.00  0.00    -0.315 N 
ATOM     14  H   LIG    1       -5.594   3.937   1.298  0.00  0.00    +0.149 HD
ATOM     15  C   LIG    1       -3.816   2.715   1.195  0.00  0.00    +0.113 C 
ENDBRANCH   2   9
BRANCH   8  16
ATOM     16  C   LIG    1        1.494  -0.134  -0.075  0.00  0.00    +0.140 C 
ATOM     17  C   LIG    1        2.006  -0.704  -1.418  0.00  0.00    +0.038 C 
BRANCH  16  18
ATOM     18  N   LIG    1        2.065  -0.825   1.107  0.00  0.00    -0.239 N 
ATOM     19  C   LIG    1        3.255  -1.527   1.276  0.00  0.00    +0.164 A 
ATOM     20  N   LIG    1        4.197  -1.838   0.374  0.00  0.00    -0.216 NA
ATOM     21  C   LIG    1        5.233  -2.552   0.890  0.00  0.00    +0.225 A 
ATOM     22  N   LIG    1        5.401  -2.960   2.173  0.00  0.00    -0.220 NA
ATOM     23  C   LIG    1        4.430  -2.620   3.058  0.00  0.00    +0.130 A 
ATOM     24  C   LIG    1        3.307  -1.879   2.648  0.00  0.00    +0.081 A 
ATOM     25  C   LIG    1        2.122  -1.325   3.219  0.00  0.00    +0.073 A 
ATOM     26  C   LIG    1        1.638  -1.379   4.650  0.00  0.00    +0.068 C 
ATOM     27  N   LIG    1        1.435  -0.692   2.300  0.00  0.00    -0.173 NA
BRANCH  23  28
ATOM     28  N   LIG    1        4.593  -3.022   4.382  0.00  0.00    -0.342 N 
ATOM     29  H   LIG    1        5.423  -3.537   4.641  0.00  0.00    +0.144 HD
ATOM     30  H   LIG    1        3.902  -2.764   5.070  0.00  0.00    +0.144 HD
ENDBRANCH  23  28
ENDBRANCH  16  18
ENDBRANCH   8  16
BRANCH   1  31
ATOM     31  O   LIG    1       -0.044   2.320   0.054  0.00  0.00    -0.492 OA
BRANCH  31  33
ATOM     32  C   LIG    1        0.939   4.123   1.300  0.00  0.00    +0.048 C 
ATOM     33  C   LIG    1        0.222   2.773   1.378  0.00  0.00    +0.226 C 
ENDBRANCH  31  33
ENDBRANCH   1  31
TORSDOF 6
