REMARK  Name = DB14875
REMARK                            x       y       z     vdW  Elec       q    Type
REMARK                         _______ _______ _______ _____ _____    ______ ____
ROOT
ATOM      1  C   LIG    1        1.606   0.045  -0.049  0.00  0.00    +0.111 A 
ATOM      2  N   LIG    1        2.123   1.292   0.097  0.00  0.00    -0.225 NA
ATOM      3  C   LIG    1        3.313   1.488   0.730  0.00  0.00    +0.123 A 
ATOM      4  C   LIG    1        4.026   0.389   1.231  0.00  0.00    +0.044 A 
ATOM      5  C   LIG    1        3.495  -0.893   1.103  0.00  0.00    +0.019 A 
ATOM      6  C   LIG    1        2.269  -1.097   0.457  0.00  0.00    +0.069 A 
ENDROOT
BRANCH   3   7
ATOM      7  N   LIG    1        3.807   2.801   0.764  0.00  0.00    -0.315 N 
ATOM      8  C   LIG    1        4.890   3.194   1.693  0.00  0.00    +0.110 C 
ATOM      9  C   LIG    1        5.684   4.447   1.249  0.00  0.00    +0.017 C 
ATOM     10  C   LIG    1        4.715   5.636   1.163  0.00  0.00    +0.007 C 
ATOM     11  C   LIG    1        3.585   5.286   0.193  0.00  0.00    +0.019 C 
ATOM     12  C   LIG    1        2.894   3.955   0.564  0.00  0.00    +0.106 C 
BRANCH   9  13
ATOM     13  C   LIG    1        6.930   4.690   2.151  0.00  0.00    +0.125 C 
BRANCH  13  14
ATOM     14  C   LIG    1        7.947   5.729   1.616  0.00  0.00    +0.305 C 
ATOM     15  O   LIG    1        8.624   6.339   2.473  0.00  0.00    -0.251 OA
BRANCH  14  16
ATOM     16  O   LIG    1        8.076   5.886   0.380  0.00  0.00    -0.481 OA
ATOM     17  H   LIG    1        8.689   6.513   0.049  0.00  0.00    +0.295 HD
ENDBRANCH  14  16
ENDBRANCH  13  14
ENDBRANCH   9  13
ENDBRANCH   3   7
BRANCH   6  18
ATOM     18  C   LIG    1        1.746  -2.509   0.340  0.00  0.00    +0.247 C 
ATOM     19  N   LIG    1        1.295  -2.868  -0.878  0.00  0.00    -0.308 N 
ATOM     20  H   LIG    1        1.097  -2.114  -1.520  0.00  0.00    +0.149 HD
ATOM     21  O   LIG    1        1.799  -3.275   1.303  0.00  0.00    -0.270 OA
BRANCH  19  22
ATOM     22  C   LIG    1        0.718  -4.163  -1.243  0.00  0.00    +0.073 C 
ATOM     23  C   LIG    1        1.649  -5.396  -1.084  0.00  0.00    +0.022 C 
ATOM     24  C   LIG    1        1.000  -6.716  -1.544  0.00  0.00    +0.002 C 
ATOM     25  C   LIG    1       -0.379  -6.940  -0.902  0.00  0.00    +0.000 C 
ATOM     26  C   LIG    1       -1.320  -5.754  -1.169  0.00  0.00    +0.002 C 
ATOM     27  C   LIG    1       -0.717  -4.411  -0.712  0.00  0.00    +0.022 C 
ENDBRANCH  19  22
ENDBRANCH   6  18
BRANCH   1  28
ATOM     28  S   LIG    1       -0.046  -0.020  -0.717  0.00  0.00    -0.105 S 
BRANCH  28  29
ATOM     29  C   LIG    1       -0.703   1.677  -0.768  0.00  0.00    +0.075 C 
BRANCH  29  31
ATOM     30  C   LIG    1       -2.356   1.374  -2.723  0.00  0.00    +0.004 C 
ATOM     31  C   LIG    1       -2.153   1.810  -1.263  0.00  0.00    +0.008 C 
ENDBRANCH  29  31
ENDBRANCH  28  29
ENDBRANCH   1  28
TORSDOF 9
