REMARK  Name = DB14737
REMARK                            x       y       z     vdW  Elec       q    Type
REMARK                         _______ _______ _______ _____ _____    ______ ____
ROOT
ATOM      1  C   LIG    1       -4.393  -0.053   0.121  0.00  0.00    -0.004 A 
ATOM      2  C   LIG    1       -5.220   1.013   0.511  0.00  0.00    +0.012 A 
ATOM      3  C   LIG    1       -6.609   0.899   0.490  0.00  0.00    -0.050 A 
ATOM      4  C   LIG    1       -7.190  -0.298   0.084  0.00  0.00    +0.004 A 
ATOM      5  C   LIG    1       -6.384  -1.377  -0.265  0.00  0.00    +0.008 A 
ATOM      6  C   LIG    1       -7.475   2.074   0.906  0.00  0.00    +0.044 C 
ATOM      7  C   LIG    1       -4.984  -1.290  -0.218  0.00  0.00    +0.003 A 
ATOM      8  C   LIG    1       -4.071  -2.482  -0.576  0.00  0.00    +0.131 C 
ATOM      9  O   LIG    1       -2.817  -2.391   0.125  0.00  0.00    -0.481 OA
ATOM     10  C   LIG    1       -2.183  -1.168   0.093  0.00  0.00    +0.133 A 
ATOM     11  C   LIG    1       -0.790  -1.206   0.084  0.00  0.00    +0.050 A 
ATOM     12  C   LIG    1       -0.063  -0.019   0.027  0.00  0.00    -0.040 A 
ATOM     13  C   LIG    1       -0.744   1.197  -0.032  0.00  0.00    +0.050 A 
ATOM     14  C   LIG    1       -2.140   1.238  -0.018  0.00  0.00    +0.128 A 
ATOM     15  C   LIG    1       -3.790  -2.481  -2.096  0.00  0.00    +0.060 C 
ATOM     16  C   LIG    1       -4.652  -3.818  -0.063  0.00  0.00    +0.060 C 
ATOM     17  C   LIG    1       -2.892   0.045   0.079  0.00  0.00    +0.066 A 
ENDROOT
BRANCH  14  18
ATOM     18  O   LIG    1       -2.719   2.474  -0.141  0.00  0.00    -0.506 OA
ATOM     19  H   LIG    1       -2.074   3.180  -0.217  0.00  0.00    +0.292 HD
ENDBRANCH  14  18
BRANCH  12  20
ATOM     20  C   LIG    1        1.458  -0.048   0.002  0.00  0.00    +0.035 C 
BRANCH  20  21
ATOM     21  C   LIG    1        2.028  -0.032  -1.428  0.00  0.00    +0.005 C 
BRANCH  21  22
ATOM     22  C   LIG    1        3.567  -0.039  -1.457  0.00  0.00    +0.000 C 
BRANCH  22  23
ATOM     23  C   LIG    1        4.138  -0.013  -2.885  0.00  0.00    -0.003 C 
ATOM     24  C   LIG    1        5.673  -0.004  -2.914  0.00  0.00    +0.004 C 
ENDBRANCH  22  23
ENDBRANCH  21  22
ENDBRANCH  20  21
ENDBRANCH  12  20
TORSDOF 5
