REMARK  Name = DB14977
REMARK                            x       y       z     vdW  Elec       q    Type
REMARK                         _______ _______ _______ _____ _____    ______ ____
ROOT
ATOM      1  C   LIG    1       -1.919   3.172   0.151  0.00  0.00    +0.128 A 
ATOM      2  S   LIG    1       -3.316   2.102  -0.040  0.00  0.00    -0.031 S 
ATOM      3  C   LIG    1       -2.205   0.755  -0.057  0.00  0.00    +0.196 A 
ATOM      4  N   LIG    1       -2.256  -0.547  -0.161  0.00  0.00    -0.216 NA
ATOM      5  C   LIG    1       -0.997  -0.956  -0.095  0.00  0.00    +0.169 A 
ATOM      6  C   LIG    1       -0.100   0.119   0.044  0.00  0.00    +0.093 A 
ATOM      7  N   LIG    1       -0.930   1.230   0.077  0.00  0.00    -0.208 N 
ATOM      8  N   LIG    1       -0.751   2.580   0.196  0.00  0.00    -0.160 NA
ENDROOT
BRANCH   5   9
ATOM      9  C   LIG    1       -0.715  -2.448  -0.183  0.00  0.00    +0.436 C 
ATOM     10  F   LIG    1       -1.375  -3.118   0.763  0.00  0.00    -0.164 F 
ATOM     11  F   LIG    1        0.579  -2.726  -0.030  0.00  0.00    -0.164 F 
ATOM     12  F   LIG    1       -1.091  -2.938  -1.364  0.00  0.00    -0.164 F 
ENDBRANCH   5   9
BRANCH   1  13
ATOM     13  C   LIG    1       -2.042   4.679   0.239  0.00  0.00    +0.224 C 
BRANCH  13  15
ATOM     14  C   LIG    1       -3.342   6.422   1.201  0.00  0.00    +0.194 C 
ATOM     15  O   LIG    1       -3.134   5.023   1.081  0.00  0.00    -0.376 OA
ENDBRANCH  13  15
ENDBRANCH   1  13
BRANCH   6  16
ATOM     16  C   LIG    1        1.420   0.188   0.142  0.00  0.00    +0.165 C 
BRANCH  16  17
ATOM     17  N   LIG    1        2.004   1.279  -0.646  0.00  0.00    -0.295 N 
ATOM     18  C   LIG    1        2.623   2.341  -0.081  0.00  0.00    +0.216 C 
ATOM     19  O   LIG    1        2.834   2.564   1.111  0.00  0.00    -0.276 OA
ATOM     20  C   LIG    1        3.009   3.261  -1.236  0.00  0.00    +0.101 C 
ATOM     21  C   LIG    1        2.871   2.428  -2.501  0.00  0.00    +0.022 C 
ATOM     22  C   LIG    1        1.896   1.330  -2.101  0.00  0.00    +0.112 C 
BRANCH  21  23
ATOM     23  C   LIG    1        2.459   3.239  -3.754  0.00  0.00    +0.098 C 
BRANCH  23  24
ATOM     24  C   LIG    1        2.424   2.458  -5.085  0.00  0.00    +0.323 C 
ATOM     25 CL   LIG    1        4.061   1.881  -5.500  0.00  0.00    -0.048 Cl
ATOM     26  F   LIG    1        2.003   3.243  -6.076  0.00  0.00    -0.187 F 
ATOM     27  F   LIG    1        1.607   1.405  -5.038  0.00  0.00    -0.187 F 
ENDBRANCH  23  24
ENDBRANCH  21  23
ENDBRANCH  16  17
ENDBRANCH   6  16
TORSDOF 7
