REMARK  Name = DB14840
REMARK                            x       y       z     vdW  Elec       q    Type
REMARK                         _______ _______ _______ _____ _____    ______ ____
ROOT
ATOM      1  C   LIG    1       -2.047   1.271  -0.411  0.00  0.00    +0.071 A 
ATOM      2  C   LIG    1       -0.643   1.229  -0.384  0.00  0.00    +0.036 A 
ATOM      3  C   LIG    1        0.044   0.013  -0.274  0.00  0.00    +0.003 A 
ATOM      4  C   LIG    1       -0.692  -1.181  -0.206  0.00  0.00    +0.029 A 
ATOM      5  C   LIG    1       -2.085  -1.145  -0.226  0.00  0.00    +0.056 A 
ATOM      6 BR   LIG    1        0.170  -2.881  -0.098  0.00  0.00    -0.050 Br
ATOM      7  C   LIG    1       -2.761   0.069  -0.323  0.00  0.00    +0.146 A 
ATOM      8  F   LIG    1       -4.116   0.066  -0.340  0.00  0.00    -0.204 F 
ENDROOT
BRANCH   3   9
ATOM      9  C   LIG    1        1.526   0.013  -0.274  0.00  0.00    +0.048 A 
ATOM     10  C   LIG    1        2.185  -0.254   0.876  0.00  0.00    +0.025 A 
ATOM     11  C   LIG    1        3.647  -0.298   0.931  0.00  0.00    +0.018 A 
ATOM     12  C   LIG    1        4.342  -0.611   2.099  0.00  0.00    +0.122 A 
ATOM     13  N   LIG    1        5.694  -0.680   2.144  0.00  0.00    -0.240 NA
ATOM     14  C   LIG    1        6.395  -0.439   1.001  0.00  0.00    +0.120 A 
ATOM     15  C   LIG    1        5.760  -0.118  -0.204  0.00  0.00    +0.070 A 
ATOM     16  C   LIG    1        4.355  -0.041  -0.254  0.00  0.00    +0.057 A 
ATOM     17  N   LIG    1        3.610   0.281  -1.437  0.00  0.00    -0.308 N 
ATOM     18  C   LIG    1        2.235   0.274  -1.535  0.00  0.00    +0.260 A 
ATOM     19  O   LIG    1        1.622   0.475  -2.589  0.00  0.00    -0.267 OA
BRANCH  14  20
ATOM     20  N   LIG    1        7.797  -0.515   1.012  0.00  0.00    -0.332 N 
ATOM     21  H   LIG    1        8.312  -0.295   0.172  0.00  0.00    +0.147 HD
ATOM     22  C   LIG    1        8.540  -0.791   2.234  0.00  0.00    +0.127 C 
ENDBRANCH  14  20
BRANCH  17  23
ATOM     23  C   LIG    1        4.364   0.577  -2.677  0.00  0.00    +0.122 C 
ATOM     24  C   LIG    1        4.745  -0.680  -3.476  0.00  0.00    +0.027 C 
ENDBRANCH  17  23
ENDBRANCH   3   9
BRANCH   1  29
ATOM     25  N   LIG    1       -3.455   4.542  -0.810  0.00  0.00    -0.269 N 
ATOM     26  H   LIG    1       -4.287   4.183  -0.367  0.00  0.00    +0.156 HD
ATOM     27  C   LIG    1       -2.420   3.684  -0.921  0.00  0.00    +0.308 C 
ATOM     28  O   LIG    1       -1.296   3.977  -1.330  0.00  0.00    -0.252 OA
ATOM     29  N   LIG    1       -2.803   2.456  -0.515  0.00  0.00    -0.267 N 
ATOM     30  H   LIG    1       -3.785   2.339  -0.313  0.00  0.00    +0.156 HD
BRANCH  25  34
ATOM     31  C   LIG    1       -3.862   8.602  -1.774  0.00  0.00    +0.000 A 
ATOM     32  C   LIG    1       -4.768   7.967  -0.928  0.00  0.00    +0.002 A 
ATOM     33  C   LIG    1       -4.602   6.618  -0.627  0.00  0.00    +0.023 A 
ATOM     34  C   LIG    1       -3.528   5.903  -1.165  0.00  0.00    +0.035 A 
ATOM     35  C   LIG    1       -2.626   6.548  -2.027  0.00  0.00    +0.023 A 
ATOM     36  C   LIG    1       -2.795   7.898  -2.326  0.00  0.00    +0.002 A 
ENDBRANCH  25  34
ENDBRANCH   1  29
TORSDOF 5
