REMARK  Name = DB14086
REMARK                            x       y       z     vdW  Elec       q    Type
REMARK                         _______ _______ _______ _____ _____    ______ ____
ROOT
ATOM      1  O   LIG    1       -0.422   1.403  -0.242  0.00  0.00    -0.481 OA
ATOM      2  C   LIG    1        0.037   0.051  -0.122  0.00  0.00    +0.232 C 
ATOM      3  C   LIG    1       -0.528  -0.805  -1.287  0.00  0.00    +0.164 C 
ATOM      4  C   LIG    1       -2.065  -0.825  -1.199  0.00  0.00    +0.078 C 
ATOM      5  C   LIG    1       -2.627   0.574  -0.945  0.00  0.00    +0.038 A 
ATOM      6  C   LIG    1       -3.971   0.903  -1.181  0.00  0.00    +0.127 A 
ATOM      7  C   LIG    1       -4.454   2.183  -0.901  0.00  0.00    +0.091 A 
ATOM      8  C   LIG    1       -3.603   3.156  -0.382  0.00  0.00    +0.124 A 
ATOM      9  C   LIG    1       -2.264   2.853  -0.147  0.00  0.00    +0.091 A 
ATOM     10  C   LIG    1       -1.782   1.574  -0.422  0.00  0.00    +0.132 A 
ENDROOT
BRANCH   2  11
ATOM     11  C   LIG    1        1.564   0.041  -0.047  0.00  0.00    -0.001 A 
ATOM     12  C   LIG    1        2.221  -0.583   1.019  0.00  0.00    +0.011 A 
ATOM     13  C   LIG    1        3.614  -0.593   1.079  0.00  0.00    +0.049 A 
ATOM     14  C   LIG    1        4.366   0.021   0.075  0.00  0.00    +0.158 A 
ATOM     15  C   LIG    1        3.715   0.650  -0.994  0.00  0.00    +0.159 A 
ATOM     16  C   LIG    1        2.320   0.657  -1.050  0.00  0.00    +0.056 A 
BRANCH  14  17
ATOM     17  O   LIG    1        5.736  -0.005   0.156  0.00  0.00    -0.503 OA
ATOM     18  H   LIG    1        6.057  -0.471   0.931  0.00  0.00    +0.292 HD
ENDBRANCH  14  17
BRANCH  15  19
ATOM     19  O   LIG    1        4.426   1.265  -1.994  0.00  0.00    -0.503 OA
ATOM     20  H   LIG    1        3.864   1.663  -2.663  0.00  0.00    +0.292 HD
ENDBRANCH  15  19
ENDBRANCH   2  11
BRANCH   3  21
ATOM     21  O   LIG    1       -0.021  -2.127  -1.298  0.00  0.00    -0.387 OA
ATOM     22  H   LIG    1       -0.230  -2.528  -2.145  0.00  0.00    +0.210 HD
ENDBRANCH   3  21
BRANCH   8  23
ATOM     23  O   LIG    1       -4.081   4.410  -0.113  0.00  0.00    -0.507 OA
ATOM     24  H   LIG    1       -3.410   5.000   0.238  0.00  0.00    +0.292 HD
ENDBRANCH   8  23
BRANCH   6  25
ATOM     25  O   LIG    1       -4.840  -0.030  -1.684  0.00  0.00    -0.506 OA
ATOM     26  H   LIG    1       -5.728   0.315  -1.800  0.00  0.00    +0.292 HD
ENDBRANCH   6  25
TORSDOF 6
