REMARK  Name = DB14978
REMARK                            x       y       z     vdW  Elec       q    Type
REMARK                         _______ _______ _______ _____ _____    ______ ____
ROOT
ATOM      1  C   UNK A  1        2.066   0.278  -0.207  0.00  0.00    +0.183 C 
ENDROOT
BRANCH   1   5
ATOM      2  N   UNK A  1       -1.530   0.811  -0.530  0.00  0.00    -0.286 N 
ATOM      3  H   UNK A  1       -1.563   0.541  -1.502  0.00  0.00    +0.151 HD
ATOM      4  C   UNK A  0       -0.328   1.040   0.028  0.00  0.00    +0.301 C 
ATOM      5  N   UNK A  1        0.657   0.417  -0.640  0.00  0.00    -0.286 N 
ATOM      6  H   UNK A  1        0.472   0.095  -1.579  0.00  0.00    +0.151 HD
ATOM      7  O   UNK A  0       -0.161   1.694   1.059  0.00  0.00    -0.253 OA
BRANCH   2   8
ATOM      8  C   UNK A  1       -2.845   1.037   0.100  0.00  0.00    +0.183 C 
BRANCH   8   9
ATOM      9  C   UNK A  1       -3.071   0.047   1.308  0.00  0.00    +0.325 C 
ATOM     10  O   UNK A  1       -3.087   0.594   2.435  0.00  0.00    -0.249 OA
BRANCH   9  11
ATOM     11  O   UNK A  1       -3.184  -1.168   1.018  0.00  0.00    -0.479 OA
ATOM     12  H   UNK A  1       -3.320  -1.801   1.696  0.00  0.00    +0.295 HD
ENDBRANCH   9  11
ENDBRANCH   8   9
BRANCH   8  13
ATOM     13  C   UNK A  1       -3.965   0.853  -0.967  0.00  0.00    +0.045 C 
BRANCH  13  14
ATOM     14  C   UNK A  1       -3.932   1.923  -2.086  0.00  0.00    +0.123 C 
BRANCH  14  15
ATOM     15  C   UNK A  1       -5.046   1.825  -3.146  0.00  0.00    +0.305 C 
ATOM     16  O   UNK A  1       -5.011   2.677  -4.062  0.00  0.00    -0.251 OA
BRANCH  15  17
ATOM     17  O   UNK A  1       -5.912   0.926  -3.049  0.00  0.00    -0.481 OA
ATOM     18  H   UNK A  1       -6.772   1.136  -2.739  0.00  0.00    +0.295 HD
ENDBRANCH  15  17
ENDBRANCH  14  15
ENDBRANCH  13  14
ENDBRANCH   8  13
ENDBRANCH   2   8
ENDBRANCH   1   5
BRANCH   1  19
ATOM     19  C   UNK A  1        3.039   0.110  -1.443  0.00  0.00    +0.325 C 
ATOM     20  O   UNK A  1        4.248   0.287  -1.165  0.00  0.00    -0.249 OA
BRANCH  19  21
ATOM     21  O   UNK A  1        2.539  -0.182  -2.558  0.00  0.00    -0.479 OA
ATOM     22  H   UNK A  1        3.093  -0.287  -3.306  0.00  0.00    +0.295 HD
ENDBRANCH  19  21
ENDBRANCH   1  19
BRANCH   1  23
ATOM     23  C   UNK A  1        2.277  -0.880   0.821  0.00  0.00    +0.034 C 
BRANCH  23  24
ATOM     24  C   UNK A  1        1.510  -0.729   2.150  0.00  0.00    +0.004 C 
BRANCH  24  25
ATOM     25  C   UNK A  1        1.886  -1.785   3.208  0.00  0.00    +0.019 C 
BRANCH  25  26
ATOM     26  C   UNK A  1        1.175  -1.581   4.562  0.00  0.00    +0.106 C 
BRANCH  26  27
ATOM     27  N   UNK A  1       -0.286  -1.613   4.476  0.00  0.00    -0.299 N 
ATOM     28  H   UNK A  1       -0.751  -0.718   4.430  0.00  0.00    +0.150 HD
ATOM     29  C   UNK A  1       -1.030  -2.728   4.398  0.00  0.00    +0.304 C 
ATOM     30  N   UNK A  1       -2.312  -2.420   4.115  0.00  0.00    -0.269 N 
ATOM     31  H   UNK A  1       -2.526  -1.437   4.029  0.00  0.00    +0.156 HD
ATOM     32  O   UNK A  1       -0.575  -3.861   4.559  0.00  0.00    -0.253 OA
BRANCH  30  33
ATOM     33  C   UNK A  1       -3.418  -3.268   3.912  0.00  0.00    +0.035 A 
ATOM     34  C   UNK A  1       -3.350  -4.668   3.815  0.00  0.00    +0.024 A 
ATOM     35  C   UNK A  1       -4.509  -5.408   3.599  0.00  0.00    +0.016 A 
ATOM     36  C   UNK A  1       -5.734  -4.758   3.474  0.00  0.00    +0.013 A 
ATOM     37  I   UNK A  1       -7.472  -5.874   3.142  0.00  0.00    -0.044 I 
ATOM     38  C   UNK A  1       -5.811  -3.370   3.564  0.00  0.00    +0.016 A 
ATOM     39  C   UNK A  1       -4.654  -2.628   3.783  0.00  0.00    +0.024 A 
ENDBRANCH  30  33
ENDBRANCH  26  27
ENDBRANCH  25  26
ENDBRANCH  24  25
ENDBRANCH  23  24
ENDBRANCH   1  23
TORSDOF 16
