REMARK  Name = DB14802
REMARK                            x       y       z     vdW  Elec       q    Type
REMARK                         _______ _______ _______ _____ _____    ______ ____
ROOT
ATOM      1  C   LIG    1        1.455  -2.436  -0.128  0.00  0.00    +0.157 C 
ATOM      2  C   LIG    1        1.196  -2.862  -1.573  0.00  0.00    +0.046 A 
ATOM      3  N   LIG    1        0.256  -2.300  -2.396  0.00  0.00    -0.356 N 
ATOM      4  H   LIG    1       -0.319  -1.522  -2.106  0.00  0.00    +0.166 HD
ATOM      5  C   LIG    1        0.217  -2.969  -3.598  0.00  0.00    +0.050 A 
ATOM      6  C   LIG    1       -0.589  -2.758  -4.722  0.00  0.00    +0.026 A 
ATOM      7  C   LIG    1       -0.424  -3.634  -5.793  0.00  0.00    +0.005 A 
ATOM      8  C   LIG    1        0.492  -4.678  -5.747  0.00  0.00    +0.039 A 
ATOM      9  C   LIG    1        1.298  -4.890  -4.630  0.00  0.00    +0.133 A 
ATOM     10  F   LIG    1        2.146  -5.941  -4.629  0.00  0.00    -0.205 F 
ATOM     11  C   LIG    1        1.190  -4.019  -3.525  0.00  0.00    +0.039 A 
ATOM     12  C   LIG    1        1.838  -3.886  -2.237  0.00  0.00    -0.007 A 
ATOM     13  C   LIG    1        2.955  -4.587  -1.488  0.00  0.00    +0.014 C 
ATOM     14  C   LIG    1        3.967  -5.499  -2.155  0.00  0.00    +0.014 C 
ATOM     15  C   LIG    1        4.374  -4.112  -1.727  0.00  0.00    +0.014 C 
ATOM     16  C   LIG    1        2.490  -4.821  -0.033  0.00  0.00    +0.120 C 
ATOM     17  N   LIG    1        2.231  -3.496   0.605  0.00  0.00    -0.288 N 
ATOM     18  C   LIG    1        2.435  -3.425   1.956  0.00  0.00    +0.213 C 
ATOM     19  O   LIG    1        2.947  -4.337   2.610  0.00  0.00    -0.276 OA
ATOM     20  C   LIG    1        2.108  -2.140   2.729  0.00  0.00    +0.109 C 
ENDROOT
BRANCH   1  27
ATOM     21  C   LIG    1        1.187   0.098   0.085  0.00  0.00    +0.127 A 
ATOM     22  C   LIG    1        1.753   1.386   0.101  0.00  0.00    +0.066 A 
ATOM     23  C   LIG    1        3.123   1.567  -0.082  0.00  0.00    +0.044 A 
ATOM     24 CL   LIG    1        3.796   3.156  -0.056  0.00  0.00    -0.083 Cl
ATOM     25  C   LIG    1        3.948   0.465  -0.286  0.00  0.00    +0.020 A 
ATOM     26  C   LIG    1        3.404  -0.816  -0.306  0.00  0.00    +0.011 A 
ATOM     27  C   LIG    1        2.028  -1.010  -0.123  0.00  0.00    +0.021 A 
BRANCH  21  29
ATOM     28  C   LIG    1       -1.051   0.948   0.475  0.00  0.00    +0.277 C 
ATOM     29  O   LIG    1       -0.164  -0.144   0.258  0.00  0.00    -0.495 OA
ENDBRANCH  21  29
ENDBRANCH   1  27
TORSDOF 2
