REMARK  Name = DB14844
REMARK                            x       y       z     vdW  Elec       q    Type
REMARK                         _______ _______ _______ _____ _____    ______ ____
ROOT
ATOM      1  N   LIG    1        1.447  -0.009   0.574  0.00  0.00    -0.262 N 
ATOM      2  C   LIG    1        2.070  -0.111  -0.786  0.00  0.00    +0.226 C 
ATOM      3  O   LIG    1        1.354  -0.034  -1.786  0.00  0.00    -0.275 OA
ATOM      4  C   LIG    1        3.520  -0.306  -0.717  0.00  0.00    +0.067 C 
ATOM      5  C   LIG    1        4.228  -0.401  -2.077  0.00  0.00    -0.059 C 
ATOM      6  N   LIG    1        5.728  -0.039  -1.948  0.00  0.00    +0.383 N 
ATOM      7  H   LIG    1        5.808   0.930  -1.673  0.00  0.00    -0.081 HD
ATOM      8  C   LIG    1        6.367  -0.913  -0.846  0.00  0.00    -0.076 C 
ATOM      9  C   LIG    1        5.750  -0.536   0.519  0.00  0.00    +0.007 C 
ATOM     10  C   LIG    1        4.223  -0.377   0.455  0.00  0.00    +0.056 C 
ATOM     11  N   LIG    1        3.542  -0.262   1.670  0.00  0.00    -0.256 NA
ATOM     12  C   LIG    1        4.116  -0.051   3.001  0.00  0.00    +0.103 C 
ATOM     13  C   LIG    1        2.915  -0.321   3.894  0.00  0.00    +0.100 C 
ATOM     14  N   LIG    1        1.826   0.017   2.993  0.00  0.00    -0.278 NA
ATOM     15  H   LIG    1        0.880   0.183   3.308  0.00  0.00    +0.125 HD
ATOM     16  C   LIG    1        2.199  -0.080   1.711  0.00  0.00    +0.198 C 
ENDROOT
BRANCH   1  17
ATOM     17  C   LIG    1       -0.021   0.232   0.630  0.00  0.00    +0.146 C 
BRANCH  17  20
ATOM     18  C   LIG    1       -2.021   0.732  -1.581  0.00  0.00    +0.044 C 
ATOM     19  C   LIG    1       -1.396   1.876  -0.793  0.00  0.00    -0.046 A 
ATOM     20  C   LIG    1       -0.471   1.646   0.246  0.00  0.00    -0.027 A 
ATOM     21  C   LIG    1        0.031   2.740   0.966  0.00  0.00    +0.005 A 
ATOM     22  C   LIG    1       -0.352   4.041   0.646  0.00  0.00    +0.000 A 
ATOM     23  C   LIG    1       -1.252   4.265  -0.392  0.00  0.00    +0.000 A 
ATOM     24  C   LIG    1       -1.773   3.187  -1.105  0.00  0.00    +0.003 A 
ENDBRANCH  17  20
ENDBRANCH   1  17
BRANCH   6  25
ATOM     25  C   LIG    1        6.438  -0.227  -3.309  0.00  0.00    -0.043 C 
BRANCH  25  26
ATOM     26  C   LIG    1        7.859   0.317  -3.351  0.00  0.00    -0.064 A 
ATOM     27  C   LIG    1        8.072   1.690  -3.500  0.00  0.00    +0.002 A 
ATOM     28  C   LIG    1        9.371   2.189  -3.554  0.00  0.00    +0.000 A 
ATOM     29  C   LIG    1       10.451   1.314  -3.464  0.00  0.00    +0.000 A 
ATOM     30  C   LIG    1       10.245  -0.057  -3.324  0.00  0.00    +0.000 A 
ATOM     31  C   LIG    1        8.947  -0.557  -3.272  0.00  0.00    +0.002 A 
ENDBRANCH  25  26
ENDBRANCH   6  25
TORSDOF 4
