REMARK  Name = DB14918
REMARK                            x       y       z     vdW  Elec       q    Type
REMARK                         _______ _______ _______ _____ _____    ______ ____
ROOT
ATOM      1  C   LIG    1        1.537   1.384  -1.082  0.00  0.00    +0.235 A 
ATOM      2  C   LIG    1        2.857   1.540  -1.501  0.00  0.00    +0.071 A 
ATOM      3  C   LIG    1        3.483   2.763  -1.270  0.00  0.00    +0.035 A 
ATOM      4  C   LIG    1        2.757   3.776  -0.635  0.00  0.00    +0.097 A 
ATOM      5  N   LIG    1        1.469   3.573  -0.236  0.00  0.00    -0.146 NA
ATOM      6  N   LIG    1        0.863   2.395  -0.461  0.00  0.00    -0.111 NA
ENDROOT
BRANCH   4   7
ATOM      7  C   LIG    1        3.342   5.117  -0.330  0.00  0.00    +0.044 A 
ATOM      8  C   LIG    1        3.165   5.677   0.943  0.00  0.00    +0.014 A 
ATOM      9  C   LIG    1        3.705   6.920   1.268  0.00  0.00    +0.009 A 
ATOM     10  C   LIG    1        4.439   7.644   0.325  0.00  0.00    -0.011 A 
ATOM     11  C   LIG    1        4.618   7.097  -0.950  0.00  0.00    +0.054 A 
ATOM     12  C   LIG    1        4.078   5.852  -1.279  0.00  0.00    +0.127 A 
BRANCH  10  13
ATOM     13  C   LIG    1        5.019   8.976   0.672  0.00  0.00    +0.019 A 
ATOM     14  C   LIG    1        5.978   9.730  -0.033  0.00  0.00    +0.142 A 
ATOM     15  N   LIG    1        6.281  10.872   0.542  0.00  0.00    -0.182 NA
ATOM     16  N   LIG    1        5.526  10.891   1.641  0.00  0.00    -0.284 N 
ATOM     17  H   LIG    1        5.547  11.662   2.292  0.00  0.00    +0.188 HD
ATOM     18  C   LIG    1        4.745   9.777   1.774  0.00  0.00    +0.113 A 
ENDBRANCH  10  13
BRANCH  12  19
ATOM     19  O   LIG    1        4.269   5.389  -2.557  0.00  0.00    -0.506 OA
ATOM     20  H   LIG    1        4.772   5.997  -3.104  0.00  0.00    +0.292 HD
ENDBRANCH  12  19
ENDBRANCH   4   7
BRANCH   1  21
ATOM     21  O   LIG    1        0.907   0.173  -1.313  0.00  0.00    -0.472 OA
BRANCH  21  31
ATOM     22  C   LIG    1        1.783  -1.405   1.285  0.00  0.00    -0.010 C 
ATOM     23  C   LIG    1        0.240  -1.507   1.312  0.00  0.00    -0.070 C 
ATOM     24  N   LIG    1       -0.178  -2.759   0.491  0.00  0.00    +0.386 N 
ATOM     25  H   LIG    1       -1.089  -3.024   0.838  0.00  0.00    -0.084 HD
ATOM     26  H   LIG    1        0.414  -3.537   0.746  0.00  0.00    -0.084 HD
ATOM     27  C   LIG    1       -0.313  -2.701  -1.056  0.00  0.00    -0.070 C 
ATOM     28  C   LIG    1        1.091  -2.906  -1.670  0.00  0.00    -0.010 C 
ATOM     29  C   LIG    1       -1.261  -3.877  -1.385  0.00  0.00    -0.010 C 
ATOM     30  C   LIG    1       -0.986  -1.357  -1.465  0.00  0.00    +0.031 C 
ATOM     31  C   LIG    1       -0.404  -0.090  -0.803  0.00  0.00    +0.173 C 
ATOM     32  C   LIG    1       -0.477  -0.251   0.736  0.00  0.00    +0.031 C 
ATOM     33  C   LIG    1       -0.294  -1.804   2.731  0.00  0.00    -0.010 C 
ENDBRANCH  21  31
ENDBRANCH   1  21
TORSDOF 5
