REMARK  Name = DB14143
REMARK                            x       y       z     vdW  Elec       q    Type
REMARK                         _______ _______ _______ _____ _____    ______ ____
ROOT
ATOM      1  N   LIG    1        1.605  -0.284  -0.280  0.00  0.00    +0.376 N 
ATOM      2  C   LIG    1        2.424   0.459   0.807  0.00  0.00    -0.092 C 
ATOM      3  C   LIG    1        2.060   0.241  -1.667  0.00  0.00    -0.092 C 
ENDROOT
BRANCH   1   4
ATOM      4  C   LIG    1        0.073  -0.057  -0.080  0.00  0.00    -0.076 C 
BRANCH   4   5
ATOM      5  C   LIG    1       -0.387   1.410  -0.249  0.00  0.00    -0.018 C 
BRANCH   5   6
ATOM      6  C   LIG    1       -1.891   1.575   0.031  0.00  0.00    -0.002 C 
BRANCH   6   7
ATOM      7  C   LIG    1       -2.376   3.027  -0.129  0.00  0.00    -0.000 C 
BRANCH   7   8
ATOM      8  C   LIG    1       -3.893   3.179   0.094  0.00  0.00    -0.000 C 
BRANCH   8   9
ATOM      9  C   LIG    1       -4.407   4.631   0.020  0.00  0.00    -0.000 C 
BRANCH   9  10
ATOM     10  C   LIG    1       -4.209   5.302  -1.353  0.00  0.00    -0.000 C 
BRANCH  10  11
ATOM     11  C   LIG    1       -4.904   6.674  -1.462  0.00  0.00    -0.000 C 
BRANCH  11  12
ATOM     12  C   LIG    1       -4.596   7.441  -2.763  0.00  0.00    -0.000 C 
BRANCH  12  13
ATOM     13  C   LIG    1       -5.051   6.725  -4.050  0.00  0.00    -0.000 C 
BRANCH  13  14
ATOM     14  C   LIG    1       -4.797   7.553  -5.322  0.00  0.00    -0.000 C 
BRANCH  14  15
ATOM     15  C   LIG    1       -5.136   6.783  -6.610  0.00  0.00    -0.000 C 
BRANCH  15  16
ATOM     16  C   LIG    1       -4.857   7.591  -7.890  0.00  0.00    -0.000 C 
BRANCH  16  17
ATOM     17  C   LIG    1       -5.099   6.775  -9.172  0.00  0.00    -0.000 C 
BRANCH  17  18
ATOM     18  C   LIG    1       -4.800   7.570 -10.458  0.00  0.00    -0.000 C 
BRANCH  18  19
ATOM     19  C   LIG    1       -5.048   6.786 -11.762  0.00  0.00    -0.000 C 
BRANCH  19  21
ATOM     20  C   LIG    1       -4.296   4.902 -13.331  0.00  0.00    +0.004 C 
ATOM     21  C   LIG    1       -4.091   5.597 -11.978  0.00  0.00    -0.003 C 
ENDBRANCH  19  21
ENDBRANCH  18  19
ENDBRANCH  17  18
ENDBRANCH  16  17
ENDBRANCH  15  16
ENDBRANCH  14  15
ENDBRANCH  13  14
ENDBRANCH  12  13
ENDBRANCH  11  12
ENDBRANCH  10  11
ENDBRANCH   9  10
ENDBRANCH   8   9
ENDBRANCH   7   8
ENDBRANCH   6   7
ENDBRANCH   5   6
ENDBRANCH   4   5
ENDBRANCH   1   4
BRANCH   1  22
ATOM     22  C   LIG    1        1.931  -1.811  -0.255  0.00  0.00    -0.076 C 
BRANCH  22  23
ATOM     23  C   LIG    1        1.540  -2.531   1.057  0.00  0.00    -0.018 C 
BRANCH  23  24
ATOM     24  C   LIG    1        2.002  -4.000   1.072  0.00  0.00    -0.002 C 
BRANCH  24  25
ATOM     25  C   LIG    1        1.576  -4.792   2.328  0.00  0.00    -0.000 C 
BRANCH  25  26
ATOM     26  C   LIG    1        2.040  -4.212   3.683  0.00  0.00    -0.000 C 
BRANCH  26  27
ATOM     27  C   LIG    1        3.569  -4.088   3.834  0.00  0.00    -0.000 C 
BRANCH  27  28
ATOM     28  C   LIG    1        3.990  -3.483   5.186  0.00  0.00    -0.000 C 
BRANCH  28  29
ATOM     29  C   LIG    1        5.516  -3.335   5.323  0.00  0.00    -0.000 C 
BRANCH  29  30
ATOM     30  C   LIG    1        5.941  -2.647   6.633  0.00  0.00    -0.000 C 
BRANCH  30  31
ATOM     31  C   LIG    1        7.469  -2.493   6.757  0.00  0.00    -0.000 C 
BRANCH  31  32
ATOM     32  C   LIG    1        7.930  -1.679   7.982  0.00  0.00    -0.000 C 
BRANCH  32  33
ATOM     33  C   LIG    1        7.619  -2.338   9.340  0.00  0.00    -0.000 C 
BRANCH  33  34
ATOM     34  C   LIG    1        8.175  -1.537  10.531  0.00  0.00    -0.000 C 
BRANCH  34  35
ATOM     35  C   LIG    1        7.853  -2.176  11.893  0.00  0.00    -0.000 C 
BRANCH  35  36
ATOM     36  C   LIG    1        8.415  -1.372  13.079  0.00  0.00    -0.000 C 
BRANCH  36  37
ATOM     37  C   LIG    1        8.087  -2.003  14.444  0.00  0.00    -0.000 C 
BRANCH  37  38
ATOM     38  C   LIG    1        8.649  -1.196  15.629  0.00  0.00    -0.003 C 
ATOM     39  C   LIG    1        8.314  -1.821  16.990  0.00  0.00    +0.004 C 
ENDBRANCH  37  38
ENDBRANCH  36  37
ENDBRANCH  35  36
ENDBRANCH  34  35
ENDBRANCH  33  34
ENDBRANCH  32  33
ENDBRANCH  31  32
ENDBRANCH  30  31
ENDBRANCH  29  30
ENDBRANCH  28  29
ENDBRANCH  27  28
ENDBRANCH  26  27
ENDBRANCH  25  26
ENDBRANCH  24  25
ENDBRANCH  23  24
ENDBRANCH  22  23
ENDBRANCH   1  22
TORSDOF 34
