REMARK  Name = DB14099
REMARK                            x       y       z     vdW  Elec       q    Type
REMARK                         _______ _______ _______ _____ _____    ______ ____
ROOT
ATOM      1  C   LIG    1       -0.630   0.533  -0.696  0.00  0.00    +0.240 C 
ENDROOT
BRANCH   1   2
ATOM      2  C   LIG    1       -0.956   2.045  -0.610  0.00  0.00    +0.220 C 
BRANCH   2   3
ATOM      3  O   LIG    1       -0.625   2.561   0.671  0.00  0.00    -0.283 OA
BRANCH   3   4
ATOM      4  P   LIG    1       -1.760   3.626   1.415  0.00  0.00    +0.475 P 
ATOM      5  O   LIG    1       -3.085   2.904   1.515  0.00  0.00    -0.227 OA
BRANCH   4   6
ATOM      6  O   LIG    1       -1.605   4.990   0.775  0.00  0.00    -0.302 OA
ATOM      7  H   LIG    1       -2.235   5.609   1.177  0.00  0.00    +0.222 HD
ENDBRANCH   4   6
BRANCH   4   8
ATOM      8  O   LIG    1       -1.047   3.640   2.994  0.00  0.00    -0.289 OA
BRANCH   8   9
ATOM      9  C   LIG    1       -0.103   4.652   3.307  0.00  0.00    +0.154 C 
BRANCH   9  10
ATOM     10  C   LIG    1        1.244   4.431   2.577  0.00  0.00    -0.047 C 
BRANCH  10  11
ATOM     11  N   LIG    1        2.141   5.701   2.512  0.00  0.00    +0.376 N 
ATOM     12  C   LIG    1        1.508   6.795   1.617  0.00  0.00    -0.093 C 
ATOM     13  C   LIG    1        2.409   6.276   3.924  0.00  0.00    -0.093 C 
ATOM     14  C   LIG    1        3.499   5.301   1.885  0.00  0.00    -0.093 C 
ENDBRANCH  10  11
ENDBRANCH   9  10
ENDBRANCH   8   9
ENDBRANCH   4   8
ENDBRANCH   3   4
ENDBRANCH   2   3
ENDBRANCH   1   2
BRANCH   1  15
ATOM     15  C   LIG    1        0.878   0.221  -0.766  0.00  0.00    +0.279 C 
BRANCH  15  16
ATOM     16  O   LIG    1        1.601   0.854   0.284  0.00  0.00    -0.461 OA
BRANCH  16  17
ATOM     17  C   LIG    1        2.924   0.651   0.429  0.00  0.00    +0.307 C 
ATOM     18  O   LIG    1        3.624  -0.084  -0.271  0.00  0.00    -0.251 OA
BRANCH  17  19
ATOM     19  C   LIG    1        3.495   1.471   1.594  0.00  0.00    +0.120 C 
BRANCH  19  20
ATOM     20  C   LIG    1        5.037   1.531   1.685  0.00  0.00    +0.011 C 
BRANCH  20  21
ATOM     21  C   LIG    1        5.713   2.319   0.544  0.00  0.00    +0.001 C 
BRANCH  21  22
ATOM     22  C   LIG    1        7.242   2.398   0.695  0.00  0.00    +0.000 C 
BRANCH  22  23
ATOM     23  C   LIG    1        7.919   3.143  -0.470  0.00  0.00    +0.000 C 
BRANCH  23  24
ATOM     24  C   LIG    1        9.451   3.202  -0.338  0.00  0.00    +0.000 C 
BRANCH  24  25
ATOM     25  C   LIG    1       10.128   3.896  -1.534  0.00  0.00    -0.000 C 
BRANCH  25  26
ATOM     26  C   LIG    1       11.661   3.945  -1.414  0.00  0.00    -0.000 C 
BRANCH  26  27
ATOM     27  C   LIG    1       12.336   4.587  -2.640  0.00  0.00    -0.000 C 
BRANCH  27  28
ATOM     28  C   LIG    1       13.869   4.646  -2.520  0.00  0.00    -0.000 C 
BRANCH  28  29
ATOM     29  C   LIG    1       14.541   5.251  -3.768  0.00  0.00    -0.000 C 
BRANCH  29  30
ATOM     30  C   LIG    1       16.084   5.262  -3.719  0.00  0.00    -0.000 C 
BRANCH  30  31
ATOM     31  C   LIG    1       16.717   6.099  -2.586  0.00  0.00    -0.000 C 
BRANCH  31  32
ATOM     32  C   LIG    1       16.378   7.601  -2.641  0.00  0.00    -0.000 C 
BRANCH  32  33
ATOM     33  C   LIG    1       17.099   8.418  -1.554  0.00  0.00    -0.000 C 
BRANCH  33  34
ATOM     34  C   LIG    1       16.773   9.921  -1.617  0.00  0.00    -0.003 C 
ATOM     35  C   LIG    1       17.486  10.734  -0.528  0.00  0.00    +0.004 C 
ENDBRANCH  33  34
ENDBRANCH  32  33
ENDBRANCH  31  32
ENDBRANCH  30  31
ENDBRANCH  29  30
ENDBRANCH  28  29
ENDBRANCH  27  28
ENDBRANCH  26  27
ENDBRANCH  25  26
ENDBRANCH  24  25
ENDBRANCH  23  24
ENDBRANCH  22  23
ENDBRANCH  21  22
ENDBRANCH  20  21
ENDBRANCH  19  20
ENDBRANCH  17  19
ENDBRANCH  16  17
ENDBRANCH  15  16
ENDBRANCH   1  15
BRANCH   1  36
ATOM     36  O   LIG    1       -1.185  -0.213   0.389  0.00  0.00    -0.456 OA
BRANCH  36  37
ATOM     37  C   LIG    1       -2.513  -0.454   0.493  0.00  0.00    +0.308 C 
ATOM     38  O   LIG    1       -3.380  -0.113  -0.314  0.00  0.00    -0.251 OA
BRANCH  37  39
ATOM     39  C   LIG    1       -2.871  -1.238   1.758  0.00  0.00    +0.120 C 
BRANCH  39  40
ATOM     40  C   LIG    1       -3.078  -0.352   3.006  0.00  0.00    +0.011 C 
BRANCH  40  41
ATOM     41  C   LIG    1       -1.783   0.260   3.582  0.00  0.00    +0.001 C 
BRANCH  41  42
ATOM     42  C   LIG    1       -2.007   1.195   4.786  0.00  0.00    +0.000 C 
BRANCH  42  43
ATOM     43  C   LIG    1       -2.535   0.495   6.053  0.00  0.00    +0.000 C 
BRANCH  43  44
ATOM     44  C   LIG    1       -2.656   1.452   7.253  0.00  0.00    +0.000 C 
BRANCH  44  45
ATOM     45  C   LIG    1       -3.197   0.765   8.520  0.00  0.00    -0.000 C 
BRANCH  45  46
ATOM     46  C   LIG    1       -3.295   1.722   9.721  0.00  0.00    -0.000 C 
BRANCH  46  47
ATOM     47  C   LIG    1       -3.821   1.040  10.997  0.00  0.00    -0.000 C 
BRANCH  47  48
ATOM     48  C   LIG    1       -3.873   1.996  12.205  0.00  0.00    -0.000 C 
BRANCH  48  49
ATOM     49  C   LIG    1       -4.295   1.329  13.529  0.00  0.00    -0.000 C 
BRANCH  49  50
ATOM     50  C   LIG    1       -5.759   0.849  13.563  0.00  0.00    -0.000 C 
BRANCH  50  51
ATOM     51  C   LIG    1       -6.165   0.275  14.932  0.00  0.00    -0.000 C 
BRANCH  51  52
ATOM     52  C   LIG    1       -7.638  -0.176  14.984  0.00  0.00    -0.000 C 
BRANCH  52  53
ATOM     53  C   LIG    1       -8.053  -0.839  16.313  0.00  0.00    -0.000 C 
BRANCH  53  54
ATOM     54  C   LIG    1       -8.036   0.108  17.529  0.00  0.00    -0.003 C 
ATOM     55  C   LIG    1       -8.520  -0.569  18.819  0.00  0.00    +0.004 C 
ENDBRANCH  53  54
ENDBRANCH  52  53
ENDBRANCH  51  52
ENDBRANCH  50  51
ENDBRANCH  49  50
ENDBRANCH  48  49
ENDBRANCH  47  48
ENDBRANCH  46  47
ENDBRANCH  45  46
ENDBRANCH  44  45
ENDBRANCH  43  44
ENDBRANCH  42  43
ENDBRANCH  41  42
ENDBRANCH  40  41
ENDBRANCH  39  40
ENDBRANCH  37  39
ENDBRANCH  36  37
ENDBRANCH   1  36
TORSDOF 45
