REMARK  Name = DB14089
REMARK                            x       y       z     vdW  Elec       q    Type
REMARK                         _______ _______ _______ _____ _____    ______ ____
ROOT
ATOM      1  C   LIG    1        0.070  -0.178   0.107  0.00  0.00    +0.175 C 
ENDROOT
BRANCH   1   2
ATOM      2  C   LIG    1       -0.150  -0.957   1.397  0.00  0.00    +0.319 C 
ATOM      3  O   LIG    1        0.452  -0.763   2.453  0.00  0.00    -0.250 OA
BRANCH   2   4
ATOM      4  O   LIG    1       -1.123  -1.900   1.237  0.00  0.00    -0.480 OA
ATOM      5  H   LIG    1       -1.286  -2.396   2.042  0.00  0.00    +0.295 HD
ENDBRANCH   2   4
ENDBRANCH   1   2
BRANCH   1   6
ATOM      6  S   LIG    1       -0.890   1.367   0.292  0.00  0.00    -0.162 S 
ATOM      7  H   LIG    1       -0.690   1.806  -0.955  0.00  0.00    +0.102 HD
ENDBRANCH   1   6
BRANCH   1   8
ATOM      8  C   LIG    1        1.581   0.070  -0.105  0.00  0.00    +0.175 C 
BRANCH   8   9
ATOM      9  S   LIG    1        2.543  -1.474  -0.283  0.00  0.00    -0.162 S 
ATOM     10  H   LIG    1        2.362  -1.897   0.972  0.00  0.00    +0.102 HD
ENDBRANCH   8   9
BRANCH   8  11
ATOM     11  C   LIG    1        1.803   0.844  -1.397  0.00  0.00    +0.319 C 
ATOM     12  O   LIG    1        1.177   0.672  -2.443  0.00  0.00    -0.250 OA
BRANCH  11  13
ATOM     13  O   LIG    1        2.810   1.754  -1.253  0.00  0.00    -0.480 OA
ATOM     14  H   LIG    1        2.976   2.244  -2.062  0.00  0.00    +0.295 HD
ENDBRANCH  11  13
ENDBRANCH   8  11
ENDBRANCH   1   8
TORSDOF 7
