REMARK  Name = DB14490
REMARK                            x       y       z     vdW  Elec       q    Type
REMARK                         _______ _______ _______ _____ _____    ______ ____
ROOT
ATOM      1  C   LIG    1        1.480   0.046   0.052  0.00  0.00    +0.276 C 
ATOM      2  O   LIG    1        2.032   0.696  -1.086  0.00  0.00    -0.445 OA
ATOM      3  C   LIG    1        2.806   1.745  -0.732  0.00  0.00    +0.378 C 
ATOM      4  O   LIG    1        3.393   2.477  -1.527  0.00  0.00    -0.241 OA
ATOM      5  C   LIG    1        2.809   1.827   0.718  0.00  0.00    +0.244 C 
ATOM      6  C   LIG    1        2.047   0.842   1.198  0.00  0.00    +0.186 C 
ENDROOT
BRANCH   5   7
ATOM      7  O   LIG    1        3.530   2.809   1.323  0.00  0.00    -0.499 OA
ATOM      8  H   LIG    1        3.961   3.347   0.654  0.00  0.00    +0.293 HD
ENDBRANCH   5   7
BRANCH   6   9
ATOM      9  O   LIG    1        1.722   0.457   2.462  0.00  0.00    -0.504 OA
ATOM     10  H   LIG    1        1.153  -0.315   2.430  0.00  0.00    +0.292 HD
ENDBRANCH   6   9
BRANCH   1  11
ATOM     11  C   LIG    1       -0.073   0.018  -0.027  0.00  0.00    +0.188 C 
BRANCH  11  12
ATOM     12  O   LIG    1       -0.614   1.331   0.012  0.00  0.00    -0.385 OA
ATOM     13  H   LIG    1       -0.292   1.772   0.802  0.00  0.00    +0.210 HD
ENDBRANCH  11  12
BRANCH  11  14
ATOM     14  C   LIG    1       -0.593  -0.719  -1.282  0.00  0.00    +0.191 C 
BRANCH  14  15
ATOM     15  O   LIG    1       -1.976  -1.000  -1.179  0.00  0.00    -0.392 OA
ATOM     16  H   LIG    1       -2.262  -1.431  -1.988  0.00  0.00    +0.210 HD
ENDBRANCH  14  15
ENDBRANCH  11  14
ENDBRANCH   1  11
TORSDOF 6
