REMARK  Name = DB14018
REMARK                            x       y       z     vdW  Elec       q    Type
REMARK                         _______ _______ _______ _____ _____    ______ ____
ROOT
ATOM      1  C   LIG    1       -0.710   1.147   0.000  0.00  0.00    +0.169 A 
ATOM      2  N   LIG    1       -0.268   2.399   0.000  0.00  0.00    -0.203 NA
ATOM      3  C   LIG    1       -1.359   3.132   0.000  0.00  0.00    +0.178 A 
ATOM      4 BR   LIG    1       -1.422   5.034   0.000  0.00  0.00    -0.008 Br
ATOM      5  N   LIG    1       -2.505   2.377   0.000  0.00  0.00    -0.327 N 
ATOM      6  H   LIG    1       -3.457   2.713   0.000  0.00  0.00    +0.168 HD
ATOM      7  N   LIG    1        0.023  -0.034   0.000  0.00  0.00    -0.280 N 
ATOM      8  C   LIG    1        1.491   0.059   0.000  0.00  0.00    +0.155 C 
ATOM      9  C   LIG    1       -0.589  -1.269   0.000  0.00  0.00    +0.333 A 
ATOM     10  O   LIG    1        0.061  -2.321   0.000  0.00  0.00    -0.246 OA
ATOM     11  N   LIG    1       -1.982  -1.232   0.000  0.00  0.00    -0.262 N 
ATOM     12  C   LIG    1       -2.851  -0.150   0.000  0.00  0.00    +0.282 A 
ATOM     13  O   LIG    1       -4.082  -0.225   0.000  0.00  0.00    -0.265 OA
ATOM     14  C   LIG    1       -2.624  -2.567   0.000  0.00  0.00    +0.157 C 
ATOM     15  C   LIG    1       -2.090   1.073   0.000  0.00  0.00    +0.150 A 
ENDROOT
TORSDOF 0
