REMARK  Name = DB14981
REMARK                            x       y       z     vdW  Elec       q    Type
REMARK                         _______ _______ _______ _____ _____    ______ ____
ROOT
ATOM      1  C   LIG    1        1.190   0.300   0.192  0.00  0.00    +0.194 C 
ATOM      2  C   LIG    1        1.612  -0.520  -1.054  0.00  0.00    +0.194 C 
ATOM      3  C   LIG    1        3.157  -0.645  -1.131  0.00  0.00    +0.194 C 
ATOM      4  C   LIG    1        3.741  -1.273   0.162  0.00  0.00    +0.194 C 
ATOM      5  C   LIG    1        3.304  -0.500   1.436  0.00  0.00    +0.194 C 
ATOM      6  C   LIG    1        1.758  -0.304   1.500  0.00  0.00    +0.194 C 
ENDROOT
BRANCH   1   7
ATOM      7  O   LIG    1       -0.226   0.396   0.279  0.00  0.00    -0.278 OA
BRANCH   7   8
ATOM      8  P   LIG    1       -0.979   1.884  -0.168  0.00  0.00    +0.473 P 
ATOM      9  O   LIG    1       -0.462   2.325  -1.520  0.00  0.00    -0.228 OA
BRANCH   8  10
ATOM     10  O   LIG    1       -1.004   2.788   1.045  0.00  0.00    -0.303 OA
ATOM     11  H   LIG    1       -1.424   3.630   0.812  0.00  0.00    +0.222 HD
ENDBRANCH   8  10
BRANCH   8  12
ATOM     12  O   LIG    1       -2.553   1.244  -0.383  0.00  0.00    -0.303 OA
ATOM     13  H   LIG    1       -3.099   0.910   0.353  0.00  0.00    +0.222 HD
ENDBRANCH   8  12
ENDBRANCH   7   8
ENDBRANCH   1   7
BRANCH   2  14
ATOM     14  O   LIG    1        1.060  -1.835  -1.033  0.00  0.00    -0.278 OA
BRANCH  14  15
ATOM     15  P   LIG    1       -0.548  -2.094  -1.625  0.00  0.00    +0.473 P 
ATOM     16  O   LIG    1       -1.462  -2.308  -0.439  0.00  0.00    -0.228 OA
BRANCH  15  17
ATOM     17  O   LIG    1       -0.235  -3.626  -2.325  0.00  0.00    -0.303 OA
ATOM     18  H   LIG    1       -0.084  -4.432  -1.797  0.00  0.00    +0.222 HD
ENDBRANCH  15  17
BRANCH  15  19
ATOM     19  O   LIG    1       -0.857  -1.126  -2.746  0.00  0.00    -0.303 OA
ATOM     20  H   LIG    1       -0.140  -1.148  -3.399  0.00  0.00    +0.222 HD
ENDBRANCH  15  19
ENDBRANCH  14  15
ENDBRANCH   2  14
BRANCH   3  21
ATOM     21  O   LIG    1        3.605  -1.413  -2.245  0.00  0.00    -0.278 OA
BRANCH  21  22
ATOM     22  P   LIG    1        3.387  -0.798  -3.850  0.00  0.00    +0.473 P 
ATOM     23  O   LIG    1        3.316   0.713  -3.816  0.00  0.00    -0.228 OA
BRANCH  22  24
ATOM     24  O   LIG    1        1.801  -1.397  -4.098  0.00  0.00    -0.303 OA
ATOM     25  H   LIG    1        1.011  -1.038  -3.647  0.00  0.00    +0.222 HD
ENDBRANCH  22  24
BRANCH  22  26
ATOM     26  O   LIG    1        4.309  -1.562  -4.775  0.00  0.00    -0.303 OA
ATOM     27  H   LIG    1        4.194  -2.514  -4.632  0.00  0.00    +0.222 HD
ENDBRANCH  22  26
ENDBRANCH  21  22
ENDBRANCH   3  21
BRANCH   4  28
ATOM     28  O   LIG    1        5.146  -1.534   0.100  0.00  0.00    -0.278 OA
BRANCH  28  29
ATOM     29  P   LIG    1        6.289  -0.235  -0.034  0.00  0.00    +0.473 P 
ATOM     30  O   LIG    1        6.140   0.440  -1.379  0.00  0.00    -0.228 OA
BRANCH  29  31
ATOM     31  O   LIG    1        7.672  -1.245  -0.124  0.00  0.00    -0.303 OA
ATOM     32  H   LIG    1        7.991  -1.637  -0.959  0.00  0.00    +0.222 HD
ENDBRANCH  29  31
BRANCH  29  33
ATOM     33  O   LIG    1        6.358   0.520   1.275  0.00  0.00    -0.303 OA
ATOM     34  H   LIG    1        6.454  -0.110   2.007  0.00  0.00    +0.222 HD
ENDBRANCH  29  33
ENDBRANCH  28  29
ENDBRANCH   4  28
BRANCH   5  35
ATOM     35  O   LIG    1        3.894  -1.046   2.618  0.00  0.00    -0.278 OA
BRANCH  35  36
ATOM     36  P   LIG    1        3.217  -2.445   3.388  0.00  0.00    +0.473 P 
ATOM     37  O   LIG    1        2.190  -1.992   4.401  0.00  0.00    -0.228 OA
BRANCH  36  38
ATOM     38  O   LIG    1        4.639  -2.873   4.242  0.00  0.00    -0.303 OA
ATOM     39  H   LIG    1        4.961  -2.382   5.021  0.00  0.00    +0.222 HD
ENDBRANCH  36  38
BRANCH  36  40
ATOM     40  O   LIG    1        2.950  -3.530   2.367  0.00  0.00    -0.303 OA
ATOM     41  H   LIG    1        3.740  -3.661   1.820  0.00  0.00    +0.222 HD
ENDBRANCH  36  40
ENDBRANCH  35  36
ENDBRANCH   5  35
BRANCH   6  42
ATOM     42  O   LIG    1        1.284   0.392   2.655  0.00  0.00    -0.278 OA
BRANCH  42  43
ATOM     43  P   LIG    1        1.993   1.896   3.155  0.00  0.00    +0.473 P 
ATOM     44  O   LIG    1        2.838   1.642   4.384  0.00  0.00    -0.228 OA
BRANCH  43  45
ATOM     45  O   LIG    1        0.522   2.616   3.657  0.00  0.00    -0.303 OA
ATOM     46  H   LIG    1       -0.156   2.923   3.023  0.00  0.00    +0.222 HD
ENDBRANCH  43  45
BRANCH  43  47
ATOM     47  O   LIG    1        2.493   2.672   1.957  0.00  0.00    -0.303 OA
ATOM     48  H   LIG    1        1.794   2.716   1.286  0.00  0.00    +0.222 HD
ENDBRANCH  43  47
ENDBRANCH  42  43
ENDBRANCH   6  42
TORSDOF 24
