REMARK  Name = DB14195
REMARK                            x       y       z     vdW  Elec       q    Type
REMARK                         _______ _______ _______ _____ _____    ______ ____
ROOT
ATOM      1  C   LIG    1       -2.695  -0.257  -0.204  0.00  0.00    +0.031 A 
ATOM      2  C   LIG    1       -1.914  -1.377  -0.510  0.00  0.00    +0.025 A 
ATOM      3  C   LIG    1       -0.530  -1.330  -0.362  0.00  0.00    +0.025 A 
ATOM      4  C   LIG    1        0.090  -0.164   0.104  0.00  0.00    +0.027 A 
ATOM      5  C   LIG    1       -0.693   0.945   0.427  0.00  0.00    +0.025 A 
ATOM      6  C   LIG    1       -2.077   0.897   0.281  0.00  0.00    +0.025 A 
ENDROOT
BRANCH   4   7
ATOM      7  N   LIG    1        1.480  -0.047   0.282  0.00  0.00    -0.342 N 
ATOM      8  H   LIG    1        1.844   0.805   0.683  0.00  0.00    +0.146 HD
BRANCH   7   9
ATOM      9  C   LIG    1        2.429  -1.123   0.005  0.00  0.00    +0.064 C 
ATOM     10  C   LIG    1        2.714  -1.266  -1.502  0.00  0.00    +0.027 C 
ATOM     11  C   LIG    1        3.731  -0.912   0.795  0.00  0.00    +0.027 C 
ENDBRANCH   7   9
ENDBRANCH   4   7
BRANCH   1  12
ATOM     12  N   LIG    1       -4.096  -0.248  -0.310  0.00  0.00    -0.314 N 
ATOM     13  H   LIG    1       -4.540   0.409   0.315  0.00  0.00    +0.152 HD
BRANCH  12  14
ATOM     14  C   LIG    1       -5.007  -1.029  -1.042  0.00  0.00    +0.031 A 
ATOM     15  C   LIG    1       -4.635  -1.803  -2.148  0.00  0.00    +0.023 A 
ATOM     16  C   LIG    1       -5.592  -2.542  -2.839  0.00  0.00    +0.002 A 
ATOM     17  C   LIG    1       -6.923  -2.500  -2.433  0.00  0.00    +0.000 A 
ATOM     18  C   LIG    1       -7.307  -1.718  -1.347  0.00  0.00    +0.002 A 
ATOM     19  C   LIG    1       -6.350  -0.979  -0.657  0.00  0.00    +0.023 A 
ENDBRANCH  12  14
ENDBRANCH   1  12
TORSDOF 4
