REMARK  Name = DB14936
REMARK                            x       y       z     vdW  Elec       q    Type
REMARK                         _______ _______ _______ _____ _____    ______ ____
ROOT
ATOM      1  C   LIG    1        3.424  -1.702  -1.861  0.00  0.00    -0.076 C 
ATOM      2  C   LIG    1        4.063  -2.846  -1.532  0.00  0.00    -0.028 C 
ATOM      3  C   LIG    1        2.421  -1.567  -3.001  0.00  0.00    +0.039 C 
ENDROOT
BRANCH   1   4
ATOM      4  C   LIG    1        3.709  -0.409  -1.100  0.00  0.00    +0.034 C 
BRANCH   4   5
ATOM      5  C   LIG    1        3.075  -0.324   0.303  0.00  0.00    +0.031 C 
BRANCH   5   7
ATOM      6  C   LIG    1        0.726   0.583   0.913  0.00  0.00    -0.076 C 
ATOM      7  C   LIG    1        1.552  -0.300   0.306  0.00  0.00    -0.028 C 
ATOM      8  C   LIG    1        1.186   1.750   1.779  0.00  0.00    +0.039 C 
BRANCH   6   9
ATOM      9  C   LIG    1       -0.790   0.447   0.784  0.00  0.00    +0.034 C 
BRANCH   9  10
ATOM     10  C   LIG    1       -1.513   1.638   0.122  0.00  0.00    +0.031 C 
BRANCH  10  12
ATOM     11  C   LIG    1       -1.236   1.542  -2.435  0.00  0.00    -0.076 C 
ATOM     12  C   LIG    1       -0.941   2.060  -1.224  0.00  0.00    -0.028 C 
ATOM     13  C   LIG    1       -2.209   0.391  -2.657  0.00  0.00    +0.039 C 
BRANCH  11  14
ATOM     14  C   LIG    1       -0.596   2.095  -3.701  0.00  0.00    +0.034 C 
BRANCH  14  15
ATOM     15  C   LIG    1        0.603   1.269  -4.198  0.00  0.00    +0.031 C 
BRANCH  15  17
ATOM     16  C   LIG    1        1.339   1.217  -6.680  0.00  0.00    -0.076 C 
ATOM     17  C   LIG    1        1.222   1.819  -5.474  0.00  0.00    -0.028 C 
ATOM     18  C   LIG    1        0.874  -0.201  -6.995  0.00  0.00    +0.039 C 
BRANCH  16  19
ATOM     19  C   LIG    1        1.994   1.939  -7.852  0.00  0.00    +0.034 C 
BRANCH  19  20
ATOM     20  C   LIG    1        1.012   2.355  -8.962  0.00  0.00    +0.031 C 
BRANCH  20  23
ATOM     21  C   LIG    1        2.623   3.458 -12.407  0.00  0.00    +0.038 C 
ATOM     22  C   LIG    1        1.967   2.590 -11.346  0.00  0.00    -0.080 C 
ATOM     23  C   LIG    1        1.683   3.078 -10.119  0.00  0.00    -0.028 C 
ATOM     24  C   LIG    1        1.692   1.162 -11.797  0.00  0.00    +0.038 C 
ENDBRANCH  20  23
ENDBRANCH  19  20
ENDBRANCH  16  19
ENDBRANCH  15  17
ENDBRANCH  14  15
ENDBRANCH  11  14
ENDBRANCH  10  12
ENDBRANCH   9  10
ENDBRANCH   6   9
ENDBRANCH   5   7
ENDBRANCH   4   5
ENDBRANCH   1   4
BRANCH   2  25
ATOM     25  C   LIG    1        3.917  -4.224  -2.164  0.00  0.00    +0.031 C 
BRANCH  25  26
ATOM     26  C   LIG    1        5.122  -4.642  -3.029  0.00  0.00    +0.034 C 
BRANCH  26  27
ATOM     27  C   LIG    1        6.447  -4.754  -2.279  0.00  0.00    -0.076 C 
ATOM     28  C   LIG    1        7.420  -3.831  -2.457  0.00  0.00    -0.023 C 
ATOM     29  C   LIG    1        6.549  -5.968  -1.361  0.00  0.00    +0.039 C 
BRANCH  28  30
ATOM     30  C   LIG    1        8.803  -3.772  -1.821  0.00  0.00    +0.066 C 
BRANCH  30  31
ATOM     31  C   LIG    1        9.954  -3.724  -2.841  0.00  0.00    +0.010 C 
ATOM     32  C   LIG    1       10.232  -2.353  -3.349  0.00  0.00    +0.191 C 
ATOM     33  O   LIG    1        9.593  -1.344  -3.038  0.00  0.00    -0.287 OA
ATOM     34  C   LIG    1       11.384  -2.280  -4.313  0.00  0.00    +0.033 A 
ATOM     35  C   LIG    1       11.736  -1.031  -4.854  0.00  0.00    +0.012 A 
ATOM     36  C   LIG    1       12.793  -0.904  -5.750  0.00  0.00    +0.001 A 
ATOM     37  C   LIG    1       13.520  -2.027  -6.125  0.00  0.00    +0.001 A 
ATOM     38  C   LIG    1       13.187  -3.273  -5.602  0.00  0.00    +0.012 A 
ATOM     39  C   LIG    1       12.123  -3.423  -4.695  0.00  0.00    +0.033 A 
ATOM     40  C   LIG    1       11.812  -4.794  -4.162  0.00  0.00    +0.190 C 
ATOM     41  O   LIG    1       12.474  -5.780  -4.500  0.00  0.00    -0.287 OA
ATOM     42  C   LIG    1       10.673  -4.826  -3.209  0.00  0.00    +0.004 C 
ATOM     43  C   LIG    1       10.342  -6.247  -2.733  0.00  0.00    +0.048 C 
ENDBRANCH  30  31
ENDBRANCH  28  30
ENDBRANCH  26  27
ENDBRANCH  25  26
ENDBRANCH   2  25
TORSDOF 17
