REMARK  Name = DB14183
REMARK                            x       y       z     vdW  Elec       q    Type
REMARK                         _______ _______ _______ _____ _____    ______ ____
ROOT
ATOM      1  C   LIG    1        1.273   0.145   0.266  0.00  0.00    +0.034 C 
ENDROOT
BRANCH   1   2
ATOM      2  C   LIG    1       -0.239   0.069   0.067  0.00  0.00    -0.074 C 
ATOM      3  C   LIG    1       -1.027   1.135   0.333  0.00  0.00    -0.001 C 
ATOM      4  C   LIG    1       -0.747  -1.285  -0.416  0.00  0.00    +0.039 C 
BRANCH   3   5
ATOM      5  C   LIG    1       -2.535   1.248   0.183  0.00  0.00    +0.183 C 
BRANCH   5   6
ATOM      6  O   LIG    1       -3.093   1.488   1.456  0.00  0.00    -0.391 OA
ATOM      7  H   LIG    1       -4.040   1.610   1.356  0.00  0.00    +0.210 HD
ENDBRANCH   5   6
ENDBRANCH   3   5
ENDBRANCH   1   2
BRANCH   1   8
ATOM      8  C   LIG    1        2.107   0.064  -1.028  0.00  0.00    +0.031 C 
BRANCH   8  11
ATOM      9  C   LIG    1        2.486   2.290  -2.276  0.00  0.00    -0.080 C 
ATOM     10  C   LIG    1        2.044   3.275  -3.345  0.00  0.00    +0.038 C 
ATOM     11  C   LIG    1        1.791   1.156  -2.040  0.00  0.00    -0.028 C 
ATOM     12  C   LIG    1        3.736   2.715  -1.519  0.00  0.00    +0.038 C 
ENDBRANCH   8  11
ENDBRANCH   1   8
TORSDOF 5
