REMARK  Name = DB14976
REMARK                            x       y       z     vdW  Elec       q    Type
REMARK                         _______ _______ _______ _____ _____    ______ ____
ROOT
ATOM      1  N   LIG    1        1.620  -0.139   0.424  0.00  0.00    -0.175 NA
ATOM      2  C   LIG    1        2.065   0.351   1.753  0.00  0.00    +0.129 C 
ATOM      3  C   LIG    1        3.604   0.657   1.791  0.00  0.00    +0.075 C 
ATOM      4  C   LIG    1        3.972   1.071   3.278  0.00  0.00    +0.059 C 
ATOM      5  C   LIG    1        5.228   0.399   3.815  0.00  0.00    -0.001 A 
ATOM      6  C   LIG    1        6.094   0.714   4.866  0.00  0.00    +0.139 A 
ATOM      7  N   LIG    1        7.110  -0.111   4.962  0.00  0.00    -0.174 NA
ATOM      8  N   LIG    1        6.960  -0.977   3.946  0.00  0.00    -0.232 N 
ATOM      9  C   LIG    1        5.838  -0.682   3.200  0.00  0.00    +0.071 A 
ATOM     10  C   LIG    1        5.298  -1.246   1.986  0.00  0.00    +0.028 C 
ATOM     11  C   LIG    1        4.303  -0.652   1.296  0.00  0.00    -0.051 C 
ATOM     12  C   LIG    1        3.784  -1.235  -0.027  0.00  0.00    +0.049 C 
ATOM     13  C   LIG    1        2.253  -1.411   0.021  0.00  0.00    +0.114 C 
ENDROOT
BRANCH   8  14
ATOM     14  C   LIG    1        7.905  -2.009   3.745  0.00  0.00    +0.066 A 
ATOM     15  C   LIG    1        9.275  -1.741   3.865  0.00  0.00    +0.030 A 
ATOM     16  C   LIG    1       10.202  -2.762   3.667  0.00  0.00    +0.040 A 
ATOM     17  C   LIG    1        9.761  -4.046   3.354  0.00  0.00    +0.124 A 
ATOM     18  F   LIG    1       10.661  -5.037   3.165  0.00  0.00    -0.205 F 
ATOM     19  C   LIG    1        8.399  -4.319   3.237  0.00  0.00    +0.040 A 
ATOM     20  C   LIG    1        7.470  -3.302   3.434  0.00  0.00    +0.030 A 
ENDBRANCH   8  14
BRANCH   1  21
ATOM     21  S   LIG    1       -0.092   0.077   0.033  0.00  0.00    +0.064 S 
ATOM     22  O   LIG    1       -0.407  -0.651  -1.202  0.00  0.00    -0.153 OA
ATOM     23  O   LIG    1       -0.888  -0.081   1.256  0.00  0.00    -0.153 OA
BRANCH  21  28
ATOM     24  C   LIG    1       -0.355   5.409   0.079  0.00  0.00    +0.172 C 
ATOM     25  N   LIG    1       -0.201   4.021  -0.317  0.00  0.00    -0.273 N 
ATOM     26  N   LIG    1        0.197   3.736  -1.565  0.00  0.00    -0.178 NA
ATOM     27  C   LIG    1        0.261   2.424  -1.599  0.00  0.00    +0.162 A 
ATOM     28  C   LIG    1       -0.087   1.833  -0.378  0.00  0.00    +0.143 A 
ATOM     29  C   LIG    1       -0.388   2.900   0.450  0.00  0.00    +0.136 A 
ENDBRANCH  21  28
ENDBRANCH   1  21
BRANCH   3  30
ATOM     30  C   LIG    1        3.930   1.881   0.857  0.00  0.00    +0.193 C 
ATOM     31  O   LIG    1        3.028   2.666   0.551  0.00  0.00    -0.289 OA
BRANCH  30  32
ATOM     32  C   LIG    1        5.283   1.993   0.226  0.00  0.00    +0.108 A 
ATOM     33  N   LIG    1        6.368   1.676   0.982  0.00  0.00    -0.252 NA
ATOM     34  C   LIG    1        7.601   1.812   0.435  0.00  0.00    +0.112 A 
ATOM     35  C   LIG    1        7.805   2.282  -0.862  0.00  0.00    +0.032 A 
ATOM     36  C   LIG    1        6.691   2.632  -1.636  0.00  0.00    +0.058 A 
ATOM     37  C   LIG    1        5.414   2.493  -1.078  0.00  0.00    +0.043 A 
BRANCH  36  38
ATOM     38  C   LIG    1        6.857   3.168  -3.057  0.00  0.00    +0.418 C 
ATOM     39  F   LIG    1        5.963   4.125  -3.312  0.00  0.00    -0.166 F 
ATOM     40  F   LIG    1        6.671   2.171  -3.921  0.00  0.00    -0.166 F 
ATOM     41  F   LIG    1        8.075   3.678  -3.256  0.00  0.00    -0.166 F 
ENDBRANCH  36  38
ENDBRANCH  30  32
ENDBRANCH   3  30
TORSDOF 6
