REMARK  Name = DB14948
REMARK                            x       y       z     vdW  Elec       q    Type
REMARK                         _______ _______ _______ _____ _____    ______ ____
ROOT
ATOM      1  C   LIG    1        1.383   0.400  -0.004  0.00  0.00    +0.106 A 
ATOM      2  C   LIG    1        2.187  -0.647  -0.469  0.00  0.00    +0.102 A 
ATOM      3  C   LIG    1        1.781  -2.022  -0.952  0.00  0.00    +0.071 C 
ATOM      4  N   LIG    1        3.458  -0.315  -0.479  0.00  0.00    -0.081 NA
ATOM      5  O   LIG    1        3.531   0.983   0.022  0.00  0.00    -0.352 OA
ATOM      6  C   LIG    1        2.281   1.407   0.340  0.00  0.00    +0.189 A 
ENDROOT
BRANCH   6   7
ATOM      7  C   LIG    1        2.169   2.768   0.941  0.00  0.00    +0.022 A 
ATOM      8  C   LIG    1        1.202   3.029   1.913  0.00  0.00    +0.012 A 
ATOM      9  C   LIG    1        1.093   4.301   2.468  0.00  0.00    +0.009 A 
ATOM     10  C   LIG    1        1.950   5.335   2.069  0.00  0.00    -0.018 A 
ATOM     11  C   LIG    1        2.922   5.059   1.099  0.00  0.00    +0.009 A 
ATOM     12  C   LIG    1        3.034   3.788   0.540  0.00  0.00    +0.012 A 
BRANCH  10  13
ATOM     13  C   LIG    1        1.828   6.702   2.664  0.00  0.00    -0.018 A 
ATOM     14  C   LIG    1        0.576   7.215   3.034  0.00  0.00    +0.009 A 
ATOM     15  C   LIG    1        0.460   8.487   3.587  0.00  0.00    +0.005 A 
ATOM     16  C   LIG    1        1.599   9.269   3.784  0.00  0.00    -0.031 A 
ATOM     17  C   LIG    1        2.851   8.775   3.417  0.00  0.00    +0.005 A 
ATOM     18  C   LIG    1        2.962   7.503   2.863  0.00  0.00    +0.009 A 
BRANCH  16  19
ATOM     19  C   LIG    1        1.473  10.668   4.382  0.00  0.00    +0.092 C 
ATOM     20  C   LIG    1        2.280  10.986   5.638  0.00  0.00    +0.024 C 
ATOM     21  C   LIG    1        0.792  10.808   5.742  0.00  0.00    +0.024 C 
BRANCH  19  22
ATOM     22  C   LIG    1        1.265  11.816   3.371  0.00  0.00    +0.315 C 
ATOM     23  O   LIG    1        0.087  12.109   3.059  0.00  0.00    -0.250 OA
BRANCH  22  24
ATOM     24  O   LIG    1        2.286  12.372   2.905  0.00  0.00    -0.480 OA
ATOM     25  H   LIG    1        2.198  13.073   2.289  0.00  0.00    +0.295 HD
ENDBRANCH  22  24
ENDBRANCH  19  22
ENDBRANCH  16  19
ENDBRANCH  10  13
ENDBRANCH   6   7
BRANCH   1  27
ATOM     26  C   LIG    1       -0.808   1.382  -0.366  0.00  0.00    +0.405 C 
ATOM     27  N   LIG    1        0.006   0.367   0.125  0.00  0.00    -0.246 N 
ATOM     28  H   LIG    1       -0.435  -0.469   0.478  0.00  0.00    +0.158 HD
ATOM     29  O   LIG    1       -0.443   2.412  -0.941  0.00  0.00    -0.226 OA
BRANCH  26  30
ATOM     30  O   LIG    1       -2.099   1.061  -0.114  0.00  0.00    -0.442 OA
BRANCH  30  32
ATOM     31  C   LIG    1       -4.453   1.426   0.209  0.00  0.00    +0.057 C 
ATOM     32  C   LIG    1       -3.189   1.892  -0.529  0.00  0.00    +0.205 C 
BRANCH  32  33
ATOM     33  C   LIG    1       -3.386   1.876  -2.049  0.00  0.00    -0.007 A 
ATOM     34  C   LIG    1       -3.728   3.063  -2.703  0.00  0.00    +0.007 A 
ATOM     35  C   LIG    1       -3.915   3.070  -4.083  0.00  0.00    +0.000 A 
ATOM     36  C   LIG    1       -3.763   1.889  -4.806  0.00  0.00    +0.000 A 
ATOM     37  C   LIG    1       -3.425   0.701  -4.162  0.00  0.00    +0.000 A 
ATOM     38  C   LIG    1       -3.238   0.693  -2.783  0.00  0.00    +0.007 A 
ENDBRANCH  32  33
ENDBRANCH  30  32
ENDBRANCH  26  30
ENDBRANCH   1  27
TORSDOF 9
