REMARK  Name = DB14914
REMARK                            x       y       z     vdW  Elec       q    Type
REMARK                         _______ _______ _______ _____ _____    ______ ____
ROOT
ATOM      1  C   LIG    1        1.495   0.007   0.011  0.00  0.00    -0.014 A 
ATOM      2  C   LIG    1        2.192   1.031  -0.649  0.00  0.00    +0.034 A 
ATOM      3  C   LIG    1        3.591   0.998  -0.620  0.00  0.00    +0.048 A 
ATOM      4  N   LIG    1        4.527   1.854  -1.170  0.00  0.00    -0.354 N 
ATOM      5  H   LIG    1        4.308   2.680  -1.709  0.00  0.00    +0.166 HD
ATOM      6  C   LIG    1        5.805   1.419  -0.876  0.00  0.00    +0.050 A 
ATOM      7  C   LIG    1        7.064   1.939  -1.203  0.00  0.00    +0.046 A 
ATOM      8  C   LIG    1        8.163   1.219  -0.726  0.00  0.00    +0.113 A 
ATOM      9  N   LIG    1        8.079   0.084   0.011  0.00  0.00    -0.263 NA
ATOM     10  C   LIG    1        6.850  -0.403   0.316  0.00  0.00    +0.121 A 
ATOM     11  C   LIG    1        5.674   0.234  -0.108  0.00  0.00    +0.025 A 
ATOM     12  C   LIG    1        4.303  -0.029   0.050  0.00  0.00    +0.009 A 
ATOM     13  C   LIG    1        3.590  -1.045   0.701  0.00  0.00    +0.011 A 
ATOM     14  C   LIG    1        2.198  -1.008   0.670  0.00  0.00    +0.009 A 
ENDROOT
BRANCH   1  19
ATOM     15  F   LIG    1       -4.122   0.105   0.057  0.00  0.00    -0.184 F 
ATOM     16  C   LIG    1       -2.770   0.073   0.043  0.00  0.00    +0.213 A 
ATOM     17  N   LIG    1       -2.086   1.234   0.205  0.00  0.00    -0.227 NA
ATOM     18  C   LIG    1       -0.730   1.186   0.188  0.00  0.00    +0.122 A 
ATOM     19  C   LIG    1        0.004   0.004   0.015  0.00  0.00    +0.000 A 
ATOM     20  C   LIG    1       -0.729  -1.180  -0.152  0.00  0.00    +0.014 A 
ATOM     21  C   LIG    1       -2.125  -1.151  -0.138  0.00  0.00    +0.060 A 
ENDBRANCH   1  19
TORSDOF 1
