REMARK  Name = DB14944
REMARK                            x       y       z     vdW  Elec       q    Type
REMARK                         _______ _______ _______ _____ _____    ______ ____
ROOT
ATOM      1  C   LIG    1        2.361   2.951  -2.808  0.00  0.00    +0.242 C 
ATOM      2  N   LIG    1        3.019   4.106  -2.572  0.00  0.00    -0.267 N 
ATOM      3  H   LIG    1        3.247   4.331  -1.614  0.00  0.00    +0.157 HD
ATOM      4  O   LIG    1        1.992   2.576  -3.924  0.00  0.00    -0.270 OA
ENDROOT
BRANCH   2   5
ATOM      5  C   LIG    1        3.430   5.051  -3.523  0.00  0.00    +0.126 A 
ATOM      6  C   LIG    1        3.980   4.677  -4.760  0.00  0.00    +0.057 A 
ATOM      7  C   LIG    1        4.396   5.694  -5.668  0.00  0.00    +0.045 A 
ATOM      8  C   LIG    1        4.964   5.474  -6.960  0.00  0.00    +0.134 A 
ATOM      9  N   LIG    1        5.344   6.507  -7.758  0.00  0.00    -0.220 NA
ATOM     10  C   LIG    1        5.150   7.757  -7.278  0.00  0.00    +0.224 A 
ATOM     11  N   LIG    1        4.618   8.094  -6.078  0.00  0.00    -0.234 NA
ATOM     12  C   LIG    1        4.243   7.059  -5.276  0.00  0.00    +0.094 A 
ATOM     13  C   LIG    1        3.685   7.310  -4.004  0.00  0.00    +0.141 A 
ATOM     14  N   LIG    1        3.289   6.345  -3.141  0.00  0.00    -0.238 NA
BRANCH   8  15
ATOM     15  N   LIG    1        5.166   4.159  -7.424  0.00  0.00    -0.299 N 
ATOM     16  H   LIG    1        5.013   3.459  -6.713  0.00  0.00    +0.154 HD
BRANCH  15  17
ATOM     17  C   LIG    1        5.636   3.631  -8.639  0.00  0.00    +0.034 A 
ATOM     18  C   LIG    1        5.538   4.307  -9.863  0.00  0.00    +0.025 A 
ATOM     19  C   LIG    1        6.013   3.719 -11.035  0.00  0.00    +0.023 A 
ATOM     20  C   LIG    1        6.583   2.446 -11.004  0.00  0.00    +0.055 A 
ATOM     21 CL   LIG    1        7.162   1.750 -12.477  0.00  0.00    -0.082 Cl
ATOM     22  C   LIG    1        6.672   1.757  -9.789  0.00  0.00    +0.038 A 
ATOM     23 BR   LIG    1        7.434   0.011  -9.692  0.00  0.00    -0.049 Br
ATOM     24  C   LIG    1        6.194   2.349  -8.619  0.00  0.00    +0.040 A 
ENDBRANCH  15  17
ENDBRANCH   8  15
ENDBRANCH   2   5
BRANCH   1  26
ATOM     25  C   LIG    1        1.565   0.964  -1.613  0.00  0.00    -0.040 C 
ATOM     26  C   LIG    1        2.117   2.194  -1.601  0.00  0.00    +0.061 C 
BRANCH  25  27
ATOM     27  C   LIG    1        1.296   0.131  -0.368  0.00  0.00    -0.047 C 
BRANCH  27  28
ATOM     28  N   LIG    1       -0.205  -0.107  -0.020  0.00  0.00    +0.382 N 
ATOM     29  C   LIG    1       -0.895  -0.859  -1.186  0.00  0.00    -0.091 C 
ATOM     30  C   LIG    1       -0.248  -1.027   1.227  0.00  0.00    -0.091 C 
BRANCH  28  31
ATOM     31  C   LIG    1       -0.901   1.264   0.258  0.00  0.00    -0.017 C 
BRANCH  31  34
ATOM     32  C   LIG    1       -3.365   1.551  -1.659  0.00  0.00    +0.150 C 
ATOM     33  N   LIG    1       -3.416   1.255  -0.234  0.00  0.00    -0.337 N 
ATOM     34  C   LIG    1       -2.373   1.136   0.664  0.00  0.00    +0.053 A 
ATOM     35  C   LIG    1       -3.006   0.945   1.908  0.00  0.00    +0.229 A 
ATOM     36  N   LIG    1       -4.325   0.887   1.775  0.00  0.00    -0.213 NA
ATOM     37  C   LIG    1       -4.556   1.091   0.507  0.00  0.00    +0.201 A 
BRANCH  35  38
ATOM     38  N   LIG    1       -2.397   0.827   3.204  0.00  0.00    +0.027 N 
ATOM     39  O   LIG    1       -3.063   0.349   4.119  0.00  0.00    -0.128 OA
BRANCH  38  40
ATOM     40  O   LIG    1       -1.243   1.219   3.333  0.00  0.00    -0.395 OA
ATOM     41  H   LIG    1       -0.784   1.575   2.597  0.00  0.00    +0.329 HD
ENDBRANCH  38  40
ENDBRANCH  35  38
ENDBRANCH  31  34
ENDBRANCH  28  31
ENDBRANCH  27  28
ENDBRANCH  25  27
ENDBRANCH   1  26
TORSDOF 10
