REMARK  Name = DB14201
REMARK                            x       y       z     vdW  Elec       q    Type
REMARK                         _______ _______ _______ _____ _____    ______ ____
ROOT
ATOM      1  S   LIG    1        0.653  -0.208   1.166  0.00  0.00    -0.023 S 
ENDROOT
BRANCH   1   8
ATOM      2  C   LIG    1        0.017   3.607   0.764  0.00  0.00    +0.080 A 
ATOM      3  C   LIG    1       -0.163   4.861   1.370  0.00  0.00    +0.029 A 
ATOM      4  C   LIG    1       -0.395   5.967   0.550  0.00  0.00    +0.002 A 
ATOM      5  C   LIG    1       -0.448   5.842  -0.838  0.00  0.00    +0.001 A 
ATOM      6  C   LIG    1       -0.273   4.607  -1.463  0.00  0.00    +0.017 A 
ATOM      7  N   LIG    1        0.250   2.446   1.430  0.00  0.00    -0.232 NA
ATOM      8  C   LIG    1        0.371   1.435   0.616  0.00  0.00    +0.146 A 
ATOM      9  S   LIG    1        0.209   1.806  -1.089  0.00  0.00    -0.060 S 
ATOM     10  C   LIG    1       -0.043   3.489  -0.650  0.00  0.00    +0.040 A 
ENDBRANCH   1   8
BRANCH   1  11
ATOM     11  S   LIG    1        2.545  -0.656   0.540  0.00  0.00    -0.023 S 
BRANCH  11  12
ATOM     12  C   LIG    1        2.345  -1.130  -1.138  0.00  0.00    +0.146 A 
ATOM     13  S   LIG    1        1.470  -2.587  -1.560  0.00  0.00    -0.060 S 
ATOM     14  C   LIG    1        1.756  -2.209  -3.252  0.00  0.00    +0.040 A 
ATOM     15  C   LIG    1        1.364  -2.900  -4.407  0.00  0.00    +0.017 A 
ATOM     16  C   LIG    1        1.732  -2.366  -5.642  0.00  0.00    +0.001 A 
ATOM     17  C   LIG    1        2.468  -1.184  -5.731  0.00  0.00    +0.002 A 
ATOM     18  C   LIG    1        2.864  -0.487  -4.588  0.00  0.00    +0.029 A 
ATOM     19  C   LIG    1        2.504  -1.005  -3.333  0.00  0.00    +0.080 A 
ATOM     20  N   LIG    1        2.814  -0.438  -2.138  0.00  0.00    -0.232 NA
ENDBRANCH  11  12
ENDBRANCH   1  11
TORSDOF 3
