REMARK  Name = DB14725
REMARK                            x       y       z     vdW  Elec       q    Type
REMARK                         _______ _______ _______ _____ _____    ______ ____
ROOT
ATOM      1  C   LIG    1        0.523   0.441  -1.052  0.00  0.00    -0.021 C 
ATOM      2  CA  LIG    1       -0.347   1.020  -0.169  0.00  0.00    +0.123 C 
ATOM      3  N   LIG    1       -1.633   0.572   0.007  0.00  0.00    -0.249 N 
ATOM      4  C   LIG    1       -2.837   1.028   0.555  0.00  0.00    +0.244 C 
ATOM      5  O   LIG    1       -3.145   1.978   1.274  0.00  0.00    -0.273 OA
ATOM      6  CA  LIG    1       -3.621  -0.114  -0.177  0.00  0.00    +0.191 C 
ATOM      7  C   LIG    1       -2.216  -0.656  -0.571  0.00  0.00    +0.169 C 
ATOM      8  S   LIG    1       -1.684  -0.793  -2.307  0.00  0.00    -0.131 S 
ATOM      9  C   LIG    1        0.104  -0.753  -1.931  0.00  0.00    +0.104 C 
ENDROOT
BRANCH   6  10
ATOM     10  N   LIG    1       -4.521   0.246  -1.294  0.00  0.00    -0.298 N 
ATOM     11  H   LIG    1       -5.130  -0.508  -1.580  0.00  0.00    +0.150 HD
ATOM     12  C   LIG    1       -4.585   1.359  -2.059  0.00  0.00    +0.259 C 
ATOM     13  O   LIG    1       -3.870   2.348  -1.893  0.00  0.00    -0.271 OA
BRANCH  12  14
ATOM     14  C   LIG    1       -5.604   1.367  -3.227  0.00  0.00    +0.291 C 
BRANCH  14  15
ATOM     15  C   LIG    1       -4.870   1.178  -4.555  0.00  0.00    +0.002 A 
ATOM     16  C   LIG    1       -4.585  -0.106  -5.038  0.00  0.00    +0.008 A 
ATOM     17  C   LIG    1       -3.901  -0.265  -6.239  0.00  0.00    +0.000 A 
ATOM     18  C   LIG    1       -3.503   0.858  -6.961  0.00  0.00    +0.000 A 
ATOM     19  C   LIG    1       -3.781   2.139  -6.490  0.00  0.00    +0.000 A 
ATOM     20  C   LIG    1       -4.464   2.299  -5.288  0.00  0.00    +0.008 A 
ENDBRANCH  14  15
BRANCH  14  21
ATOM     21  O   LIG    1       -6.612   0.347  -3.087  0.00  0.00    -0.449 OA
BRANCH  21  22
ATOM     22  C   LIG    1       -7.646   0.439  -2.207  0.00  0.00    +0.446 C 
ATOM     23  O   LIG    1       -7.862   1.372  -1.434  0.00  0.00    -0.255 OA
ENDBRANCH  21  22
ENDBRANCH  14  21
ENDBRANCH  12  14
ENDBRANCH   6  10
BRANCH   2  24
ATOM     24  C   LIG    1        0.052   2.160   0.638  0.00  0.00    +0.351 C 
ATOM     25  OXT LIG    1        0.319   3.271   0.182  0.00  0.00    -0.244 OA
BRANCH  24  26
ATOM     26  O   LIG    1        0.108   1.852   1.968  0.00  0.00    -0.476 OA
ATOM     27  H   LIG    1        0.377   2.602   2.503  0.00  0.00    +0.295 HD
ENDBRANCH  24  26
ENDBRANCH   2  24
BRANCH   1  28
ATOM     28  C   LIG    1        1.972   0.887  -1.292  0.00  0.00    +0.111 C 
BRANCH  28  29
ATOM     29  S   LIG    1        3.212  -0.345  -0.780  0.00  0.00    -0.080 S 
BRANCH  29  30
ATOM     30  C   LIG    1        3.375   0.067   0.931  0.00  0.00    +0.209 A 
ATOM     31  N   LIG    1        3.327   1.278   1.437  0.00  0.00    -0.102 NA
ATOM     32  N   LIG    1        3.517   1.133   2.807  0.00  0.00    -0.022 NA
ATOM     33  N   LIG    1        3.690  -0.200   3.120  0.00  0.00    -0.043 NA
ATOM     34  N   LIG    1        3.579  -0.837   1.949  0.00  0.00    -0.223 N 
ATOM     35  C   LIG    1        3.752  -2.280   1.888  0.00  0.00    +0.177 C 
ENDBRANCH  29  30
ENDBRANCH  28  29
ENDBRANCH   1  28
TORSDOF 10
