REMARK  Name = DB14900
REMARK                            x       y       z     vdW  Elec       q    Type
REMARK                         _______ _______ _______ _____ _____    ______ ____
ROOT
ATOM      1  C   LIG    1        0.411   0.037  -0.335  0.00  0.00    -0.017 C 
ENDROOT
BRANCH   1   2
ATOM      2  C   LIG    1       -0.078   1.490  -0.190  0.00  0.00    -0.078 C 
BRANCH   2   8
ATOM      3  C   LIG    1       -2.227   5.370  -3.603  0.00  0.00    +0.162 A 
ATOM      4  C   LIG    1       -2.192   3.969  -3.650  0.00  0.00    +0.053 A 
ATOM      5  C   LIG    1       -2.116   3.191  -2.491  0.00  0.00    -0.044 A 
ATOM      6  C   LIG    1       -2.025   1.671  -2.607  0.00  0.00    +0.017 C 
ATOM      7  C   LIG    1       -2.375   0.940  -1.298  0.00  0.00    -0.074 C 
ATOM      8  N   LIG    1       -1.625   1.582  -0.110  0.00  0.00    +0.383 N 
ATOM      9  H   LIG    1       -1.906   1.077   0.720  0.00  0.00    -0.081 HD
ATOM     10  C   LIG    1       -2.077   3.049   0.085  0.00  0.00    -0.043 C 
ATOM     11  C   LIG    1       -2.097   3.832  -1.235  0.00  0.00    -0.057 A 
ATOM     12  C   LIG    1       -2.125   5.229  -1.195  0.00  0.00    +0.051 A 
ATOM     13  C   LIG    1       -2.187   6.008  -2.360  0.00  0.00    +0.162 A 
BRANCH   3  15
ATOM     14  C   LIG    1       -2.338   5.579  -6.018  0.00  0.00    +0.277 C 
ATOM     15  O   LIG    1       -2.294   6.176  -4.726  0.00  0.00    -0.491 OA
ENDBRANCH   3  15
BRANCH  13  16
ATOM     16  O   LIG    1       -2.216   7.392  -2.359  0.00  0.00    -0.491 OA
ATOM     17  C   LIG    1       -2.166   8.096  -1.123  0.00  0.00    +0.277 C 
ENDBRANCH  13  16
ENDBRANCH   2   8
ENDBRANCH   1   2
BRANCH   1  18
ATOM     18  C   LIG    1        1.937  -0.077  -0.188  0.00  0.00    +0.017 C 
BRANCH  18  19
ATOM     19  C   LIG    1        2.460  -1.514  -0.386  0.00  0.00    +0.104 C 
BRANCH  19  20
ATOM     20  N   LIG    1        3.911  -1.630  -0.251  0.00  0.00    -0.311 N 
ATOM     21  H   LIG    1        4.439  -1.710  -1.107  0.00  0.00    +0.149 HD
ATOM     22  C   LIG    1        4.579  -1.627   0.919  0.00  0.00    +0.248 C 
ATOM     23  O   LIG    1        4.020  -1.547   2.015  0.00  0.00    -0.270 OA
BRANCH  22  24
ATOM     24  C   LIG    1        6.085  -1.714   0.816  0.00  0.00    +0.078 A 
ATOM     25  C   LIG    1        6.667  -2.578  -0.127  0.00  0.00    +0.020 A 
ATOM     26  C   LIG    1        8.052  -2.697  -0.238  0.00  0.00    -0.050 A 
ATOM     27  C   LIG    1        8.660  -3.627  -1.273  0.00  0.00    +0.044 C 
ATOM     28  C   LIG    1        8.874  -1.942   0.596  0.00  0.00    +0.007 A 
ATOM     29  C   LIG    1        8.315  -1.081   1.537  0.00  0.00    +0.046 A 
ATOM     30  C   LIG    1        6.920  -0.952   1.664  0.00  0.00    +0.133 A 
BRANCH  30  31
ATOM     31  O   LIG    1        6.328  -0.092   2.575  0.00  0.00    -0.489 OA
BRANCH  31  32
ATOM     32  C   LIG    1        7.134   0.688   3.455  0.00  0.00    +0.262 C 
BRANCH  32  33
ATOM     33  C   LIG    1        6.217   1.529   4.350  0.00  0.00    +0.254 C 
ATOM     34  F   LIG    1        5.523   2.448   3.678  0.00  0.00    -0.246 F 
ENDBRANCH  32  33
ENDBRANCH  31  32
ENDBRANCH  30  31
ENDBRANCH  22  24
ENDBRANCH  19  20
ENDBRANCH  18  19
ENDBRANCH   1  18
TORSDOF 11
