REMARK  Name = DB14657
REMARK                            x       y       z     vdW  Elec       q    Type
REMARK                         _______ _______ _______ _____ _____    ______ ____
ROOT
ATOM      1  C   LIG    1       -3.595  -2.456   4.264  0.00  0.00    +0.016 C 
ATOM      2  C   LIG    1       -2.966  -3.837   4.600  0.00  0.00    +0.020 C 
ATOM      3  C   LIG    1       -3.809  -1.734   5.605  0.00  0.00    -0.012 C 
ATOM      4  C   LIG    1       -5.001  -1.409   6.140  0.00  0.00    +0.047 C 
ATOM      5  C   LIG    1       -6.282  -1.698   5.506  0.00  0.00    +0.179 C 
ATOM      6  O   LIG    1       -7.364  -1.412   6.015  0.00  0.00    -0.288 OA
ATOM      7  C   LIG    1       -6.156  -2.353   4.205  0.00  0.00    +0.053 C 
ATOM      8  C   LIG    1       -2.751  -1.564   3.266  0.00  0.00    +0.035 C 
ATOM      9  C   LIG    1       -1.349  -1.078   3.795  0.00  0.00    +0.120 C 
ATOM     10  C   LIG    1       -0.592  -0.223   2.739  0.00  0.00    +0.041 C 
ATOM     11  C   LIG    1       -0.465  -0.907   1.339  0.00  0.00    +0.009 C 
ATOM     12  C   LIG    1       -1.913  -1.210   0.878  0.00  0.00    +0.002 C 
ATOM     13  C   LIG    1       -1.813  -1.516  -0.625  0.00  0.00    +0.011 C 
ATOM     14  C   LIG    1       -0.571  -0.732  -1.117  0.00  0.00    +0.026 C 
ATOM     15  C   LIG    1       -0.839   0.136  -2.366  0.00  0.00    +0.011 C 
ATOM     16  C   LIG    1        0.427  -2.196   1.426  0.00  0.00    +0.015 C 
ATOM     17  C   LIG    1       -0.022   0.030   0.146  0.00  0.00    +0.135 C 
ATOM     18  C   LIG    1       -2.677  -2.181   1.824  0.00  0.00    +0.002 C 
ATOM     19  C   LIG    1       -4.103  -2.453   1.292  0.00  0.00    +0.045 C 
ATOM     20  C   LIG    1       -4.914  -3.365   2.225  0.00  0.00    +0.193 C 
ATOM     21  F   LIG    1       -6.139  -3.527   1.718  0.00  0.00    -0.241 F 
ATOM     22  C   LIG    1       -4.987  -2.706   3.611  0.00  0.00    -0.023 C 
ENDROOT
BRANCH   9  23
ATOM     23  O   LIG    1       -0.515  -2.106   4.290  0.00  0.00    -0.391 OA
ATOM     24  H   LIG    1       -0.977  -2.557   5.001  0.00  0.00    +0.210 HD
ENDBRANCH   9  23
BRANCH  17  25
ATOM     25  O   LIG    1       -0.585   1.339   0.239  0.00  0.00    -0.380 OA
ATOM     26  H   LIG    1       -1.541   1.261   0.201  0.00  0.00    +0.211 HD
ENDBRANCH  17  25
BRANCH  17  27
ATOM     27  C   LIG    1        1.525   0.250   0.092  0.00  0.00    +0.202 C 
ATOM     28  O   LIG    1        2.250  -0.478  -0.590  0.00  0.00    -0.291 OA
BRANCH  27  29
ATOM     29  C   LIG    1        2.134   1.412   0.902  0.00  0.00    +0.309 C 
BRANCH  29  30
ATOM     30  O   LIG    1        3.554   1.312   0.960  0.00  0.00    -0.457 OA
BRANCH  30  31
ATOM     31  C   LIG    1        4.276   2.207   1.663  0.00  0.00    +0.304 C 
ATOM     32  C   LIG    1        5.771   1.918   1.601  0.00  0.00    +0.136 C 
ATOM     33  O   LIG    1        3.834   3.164   2.301  0.00  0.00    -0.251 OA
ENDBRANCH  30  31
ENDBRANCH  29  30
ENDBRANCH  27  29
ENDBRANCH  17  27
TORSDOF 6
