REMARK  Name = DB14489
REMARK                            x       y       z     vdW  Elec       q    Type
REMARK                         _______ _______ _______ _____ _____    ______ ____
ROOT
ATOM      1  C   LIG    1       -0.025   0.017  -0.001  0.00  0.00    +0.131 C 
ENDROOT
BRANCH   1   2
ATOM      2  C   LIG    1       -0.544   1.468   0.012  0.00  0.00    +0.305 C 
ATOM      3  O   LIG    1       -0.744   2.023  -1.092  0.00  0.00    -0.251 OA
BRANCH   2   4
ATOM      4  O   LIG    1       -0.737   2.006   1.127  0.00  0.00    -0.481 OA
ATOM      5  H   LIG    1       -0.565   1.527   1.914  0.00  0.00    +0.295 HD
ENDBRANCH   2   4
ENDBRANCH   1   2
BRANCH   1   6
ATOM      6  C   LIG    1        1.525  -0.017  -0.001  0.00  0.00    +0.131 C 
BRANCH   6   7
ATOM      7  C   LIG    1        2.045  -1.468   0.012  0.00  0.00    +0.305 C 
ATOM      8  O   LIG    1        2.244  -2.023  -1.092  0.00  0.00    -0.251 OA
BRANCH   7   9
ATOM      9  O   LIG    1        2.237  -2.006   1.127  0.00  0.00    -0.481 OA
ATOM     10  H   LIG    1        2.065  -1.527   1.914  0.00  0.00    +0.295 HD
ENDBRANCH   7   9
ENDBRANCH   6   7
ENDBRANCH   1   6
TORSDOF 5
