REMARK  Name = DB14973
REMARK                            x       y       z     vdW  Elec       q    Type
REMARK                         _______ _______ _______ _____ _____    ______ ____
ROOT
ATOM      1  C   LIG    1        2.226   0.692  -0.571  0.00  0.00    +0.080 C 
ATOM      2  C   LIG    1        3.585   0.043  -0.278  0.00  0.00    +0.043 C 
ATOM      3  C   LIG    1        4.169   0.946  -1.385  0.00  0.00    +0.078 C 
ATOM      4  C   LIG    1        3.016   1.917  -1.048  0.00  0.00    +0.043 C 
ENDROOT
BRANCH   1   5
ATOM      5  N   LIG    1        1.275   0.858   0.543  0.00  0.00    -0.191 NA
ATOM      6  H   LIG    1        1.591   1.347   1.385  0.00  0.00    +0.148 HD
BRANCH   5   7
ATOM      7  S   LIG    1       -0.402   0.328   0.435  0.00  0.00    +0.030 S 
ATOM      8  O   LIG    1       -0.453  -0.850  -0.438  0.00  0.00    -0.158 OA
ATOM      9  O   LIG    1       -0.916   0.257   1.807  0.00  0.00    -0.158 OA
BRANCH   7  10
ATOM     10  C   LIG    1       -1.283   1.770  -0.424  0.00  0.00    +0.185 C 
BRANCH  10  12
ATOM     11  C   LIG    1       -1.613   3.000  -2.640  0.00  0.00    +0.005 C 
ATOM     12  C   LIG    1       -0.882   1.869  -1.906  0.00  0.00    +0.021 C 
ENDBRANCH  10  12
ENDBRANCH   7  10
ENDBRANCH   5   7
ENDBRANCH   1   5
BRANCH   3  13
ATOM     13  N   LIG    1        5.553   1.407  -1.194  0.00  0.00    -0.314 N 
ATOM     14  C   LIG    1        5.818   2.841  -1.029  0.00  0.00    +0.131 C 
BRANCH  13  15
ATOM     15  C   LIG    1        6.610   0.476  -0.989  0.00  0.00    +0.134 A 
ATOM     16  N   LIG    1        7.722   0.917  -0.328  0.00  0.00    -0.220 NA
ATOM     17  C   LIG    1        8.737   0.046  -0.113  0.00  0.00    +0.225 A 
ATOM     18  N   LIG    1        8.807  -1.254  -0.489  0.00  0.00    -0.218 NA
ATOM     19  C   LIG    1        7.724  -1.662  -1.155  0.00  0.00    +0.143 A 
ATOM     20  N   LIG    1        7.519  -2.921  -1.675  0.00  0.00    -0.346 N 
ATOM     21  H   LIG    1        8.139  -3.716  -1.630  0.00  0.00    +0.167 HD
ATOM     22  C   LIG    1        6.303  -2.959  -2.307  0.00  0.00    +0.085 A 
ATOM     23  C   LIG    1        5.693  -1.723  -2.209  0.00  0.00    +0.032 A 
ATOM     24  C   LIG    1        6.576  -0.867  -1.457  0.00  0.00    +0.059 A 
ENDBRANCH  13  15
ENDBRANCH   3  13
TORSDOF 6
