REMARK  Name = DB14055
REMARK                            x       y       z     vdW  Elec       q    Type
REMARK                         _______ _______ _______ _____ _____    ______ ____
ROOT
ATOM      1  C   LIG    1        4.156  -3.815  -2.131  0.00  0.00    +0.015 A 
ATOM      2  C   LIG    1        3.341  -3.279  -1.111  0.00  0.00    +0.059 A 
ATOM      3  C   LIG    1        3.017  -4.106  -0.025  0.00  0.00    +0.143 A 
ATOM      4  O   LIG    1        2.226  -3.676   1.025  0.00  0.00    -0.422 OA
ATOM      5  C   LIG    1        1.674  -2.411   1.078  0.00  0.00    +0.345 A 
ATOM      6  O   LIG    1        0.970  -2.210   2.067  0.00  0.00    -0.245 OA
ATOM      7  C   LIG    1        1.984  -1.468  -0.038  0.00  0.00    +0.087 A 
ATOM      8  C   LIG    1        3.485  -5.419   0.050  0.00  0.00    +0.047 A 
ATOM      9  C   LIG    1        4.288  -5.929  -0.968  0.00  0.00    +0.004 A 
ATOM     10  C   LIG    1        2.773  -1.898  -1.065  0.00  0.00    +0.138 A 
ATOM     11  C   LIG    1        4.623  -5.128  -2.058  0.00  0.00    +0.001 A 
ENDROOT
BRANCH  10  12
ATOM     12  O   LIG    1        3.078  -1.128  -2.059  0.00  0.00    -0.506 OA
ATOM     13  H   LIG    1        3.622  -1.450  -2.751  0.00  0.00    +0.292 HD
ENDBRANCH  10  12
BRANCH   7  14
ATOM     14  C   LIG    1        1.352  -0.056   0.111  0.00  0.00    +0.067 C 
BRANCH  14  15
ATOM     15  C   LIG    1        1.917   0.725   1.314  0.00  0.00    -0.039 A 
ATOM     16  C   LIG    1        1.192   0.882   2.504  0.00  0.00    +0.004 A 
ATOM     17  C   LIG    1        1.738   1.589   3.571  0.00  0.00    +0.000 A 
ATOM     18  C   LIG    1        3.011   2.141   3.455  0.00  0.00    +0.000 A 
ATOM     19  C   LIG    1        3.744   1.989   2.281  0.00  0.00    +0.000 A 
ATOM     20  C   LIG    1        3.197   1.282   1.214  0.00  0.00    +0.004 A 
ENDBRANCH  14  15
BRANCH  14  21
ATOM     21  C   LIG    1       -0.200  -0.073  -0.042  0.00  0.00    +0.087 C 
BRANCH  21  22
ATOM     22  C   LIG    1       -0.879   1.303  -0.069  0.00  0.00    +0.131 C 
ATOM     23  O   LIG    1       -1.652   1.650   0.822  0.00  0.00    -0.298 OA
ATOM     24  C   LIG    1       -0.574   2.221  -1.248  0.00  0.00    +0.086 C 
ENDBRANCH  21  22
ENDBRANCH  14  21
ENDBRANCH   7  14
TORSDOF 5
