REMARK  Name = DB14902
REMARK                            x       y       z     vdW  Elec       q    Type
REMARK                         _______ _______ _______ _____ _____    ______ ____
ROOT
ATOM      1  C   LIG    1        1.482   0.188   0.034  0.00  0.00    +0.093 A 
ATOM      2  N   LIG    1        2.185   1.145   0.734  0.00  0.00    -0.229 N 
ATOM      3  N   LIG    1        3.507   0.986   0.618  0.00  0.00    -0.160 NA
ATOM      4  C   LIG    1        3.711  -0.051  -0.174  0.00  0.00    +0.167 A 
ATOM      5  C   LIG    1        2.460  -0.605  -0.573  0.00  0.00    +0.110 A 
ENDROOT
BRANCH   2   6
ATOM      6  C   LIG    1        1.689   2.164   1.576  0.00  0.00    +0.084 A 
ATOM      7  C   LIG    1        1.964   3.523   1.337  0.00  0.00    +0.068 A 
ATOM      8 CL   LIG    1        2.901   4.046  -0.022  0.00  0.00    -0.081 Cl
ATOM      9  C   LIG    1        1.447   4.493   2.199  0.00  0.00    +0.042 A 
ATOM     10  C   LIG    1        0.658   4.123   3.289  0.00  0.00    +0.042 A 
ATOM     11 CL   LIG    1        0.022   5.332   4.344  0.00  0.00    -0.083 Cl
ATOM     12  C   LIG    1        0.380   2.777   3.522  0.00  0.00    +0.022 A 
ATOM     13  C   LIG    1        0.892   1.800   2.670  0.00  0.00    +0.031 A 
ENDBRANCH   2   6
BRANCH   1  17
ATOM     14  C   LIG    1       -2.809  -0.052  -0.101  0.00  0.00    +0.120 A 
ATOM     15  C   LIG    1       -2.160   1.165  -0.365  0.00  0.00    +0.046 A 
ATOM     16  C   LIG    1       -0.771   1.242  -0.323  0.00  0.00    +0.013 A 
ATOM     17  C   LIG    1       -0.013   0.110  -0.014  0.00  0.00    +0.002 A 
ATOM     18  C   LIG    1       -0.656  -1.103   0.245  0.00  0.00    +0.013 A 
ATOM     19  C   LIG    1       -2.045  -1.179   0.202  0.00  0.00    +0.046 A 
BRANCH  14  21
ATOM     20  C   LIG    1       -5.015   0.888  -0.429  0.00  0.00    +0.277 C 
ATOM     21  O   LIG    1       -4.180  -0.224  -0.121  0.00  0.00    -0.495 OA
ENDBRANCH  14  21
ENDBRANCH   1  17
BRANCH   4  22
ATOM     22  C   LIG    1        5.040  -0.517  -0.562  0.00  0.00    +0.279 C 
ATOM     23  N   LIG    1        6.068   0.169  -0.013  0.00  0.00    -0.243 N 
ATOM     24  H   LIG    1        5.946   0.822   0.748  0.00  0.00    +0.170 HD
ATOM     25  O   LIG    1        5.190  -1.458  -1.347  0.00  0.00    -0.267 OA
BRANCH  23  26
ATOM     26  N   LIG    1        7.393  -0.271  -0.172  0.00  0.00    -0.227 NA
ATOM     27  C   LIG    1        8.287   0.871  -0.395  0.00  0.00    +0.105 C 
ATOM     28  C   LIG    1        9.728   0.392  -0.676  0.00  0.00    +0.017 C 
ATOM     29  C   LIG    1       10.256  -0.527   0.439  0.00  0.00    +0.003 C 
ATOM     30  C   LIG    1        9.245  -1.647   0.737  0.00  0.00    +0.017 C 
ATOM     31  C   LIG    1        7.822  -1.093   0.968  0.00  0.00    +0.105 C 
ENDBRANCH  23  26
ENDBRANCH   4  22
BRANCH   5  32
ATOM     32  C   LIG    1        2.196  -1.749  -1.443  0.00  0.00    +0.104 C 
ATOM     33  N   LIG    1        1.985  -2.655  -2.131  0.00  0.00    -0.191 NA
ENDBRANCH   5  32
TORSDOF 6
