REMARK  Name = DB14581
REMARK                            x       y       z     vdW  Elec       q    Type
REMARK                         _______ _______ _______ _____ _____    ______ ____
ROOT
ATOM      1  C   LIG    1        1.720  -0.215  -0.342  0.00  0.00    +0.065 A 
ATOM      2  C   LIG    1        2.624  -1.337  -0.263  0.00  0.00    +0.012 A 
ATOM      3  C   LIG    1        2.439  -2.728  -0.133  0.00  0.00    +0.011 A 
ATOM      4  C   LIG    1        3.545  -3.570  -0.088  0.00  0.00    +0.001 A 
ATOM      5  C   LIG    1        4.833  -3.059  -0.175  0.00  0.00    +0.002 A 
ATOM      6  C   LIG    1        5.070  -1.694  -0.314  0.00  0.00    +0.026 A 
ATOM      7  C   LIG    1        3.957  -0.836  -0.358  0.00  0.00    +0.050 A 
ATOM      8  N   LIG    1        3.869   0.545  -0.493  0.00  0.00    -0.340 N 
ATOM      9  C   LIG    1        2.530   0.923  -0.470  0.00  0.00    +0.029 A 
ATOM     10  C   LIG    1        2.148   2.398  -0.557  0.00  0.00    +0.064 C 
ENDROOT
BRANCH   1  13
ATOM     11  N   LIG    1       -0.292  -1.234   0.303  0.00  0.00    -0.307 N 
ATOM     12  H   LIG    1        0.311  -1.849   0.829  0.00  0.00    +0.149 HD
ATOM     13  C   LIG    1        0.271  -0.196  -0.340  0.00  0.00    +0.247 C 
ATOM     14  O   LIG    1       -0.375   0.690  -0.899  0.00  0.00    -0.270 OA
BRANCH  11  15
ATOM     15  C   LIG    1       -1.728  -1.458   0.459  0.00  0.00    +0.149 C 
BRANCH  15  17
ATOM     16  C   LIG    1       -2.158  -1.190   2.942  0.00  0.00    +0.132 A 
ATOM     17  C   LIG    1       -2.322  -0.727   1.669  0.00  0.00    +0.075 A 
ATOM     18  C   LIG    1       -3.105   0.490   1.381  0.00  0.00    +0.257 A 
ATOM     19  O   LIG    1       -3.313   0.952   0.261  0.00  0.00    -0.267 OA
ATOM     20  N   LIG    1       -3.622   1.114   2.475  0.00  0.00    -0.326 N 
ATOM     21  H   LIG    1       -4.154   1.951   2.286  0.00  0.00    +0.169 HD
ATOM     22  C   LIG    1       -3.464   0.675   3.763  0.00  0.00    +0.019 A 
ATOM     23  C   LIG    1       -4.137   1.543   4.809  0.00  0.00    +0.063 C 
ATOM     24  C   LIG    1       -2.763  -0.440   4.049  0.00  0.00    +0.067 A 
BRANCH  16  26
ATOM     25  C   LIG    1       -1.207  -2.810   4.440  0.00  0.00    +0.277 C 
ATOM     26  O   LIG    1       -1.421  -2.325   3.118  0.00  0.00    -0.495 OA
ENDBRANCH  16  26
ENDBRANCH  15  17
ENDBRANCH  11  15
ENDBRANCH   1  13
BRANCH   8  27
ATOM     27  C   LIG    1        5.022   1.470  -0.632  0.00  0.00    +0.088 C 
ATOM     28  C   LIG    1        5.763   1.179  -1.957  0.00  0.00    +0.031 C 
BRANCH  27  29
ATOM     29  C   LIG    1        5.925   1.470   0.642  0.00  0.00    +0.014 C 
ATOM     30  C   LIG    1        7.058   2.515   0.586  0.00  0.00    +0.021 C 
ATOM     31  C   LIG    1        7.981   2.425   1.820  0.00  0.00    +0.085 C 
ATOM     32  N   LIG    1        7.241   2.548   3.089  0.00  0.00    -0.294 NA
ATOM     33  C   LIG    1        6.067   1.662   3.181  0.00  0.00    +0.085 C 
ATOM     34  C   LIG    1        5.152   1.768   1.944  0.00  0.00    +0.021 C 
BRANCH  32  35
ATOM     35  C   LIG    1        8.090   2.373   4.277  0.00  0.00    +0.198 C 
BRANCH  35  36
ATOM     36  C   LIG    1        9.213   3.423   4.448  0.00  0.00    +0.402 C 
ATOM     37  F   LIG    1        8.774   4.668   4.255  0.00  0.00    -0.169 F 
ATOM     38  F   LIG    1       10.236   3.213   3.620  0.00  0.00    -0.169 F 
ATOM     39  F   LIG    1        9.703   3.366   5.686  0.00  0.00    -0.169 F 
ENDBRANCH  35  36
ENDBRANCH  32  35
ENDBRANCH  27  29
ENDBRANCH   8  27
TORSDOF 8
