REMARK  Name = DB14067
REMARK                            x       y       z     vdW  Elec       q    Type
REMARK                         _______ _______ _______ _____ _____    ______ ____
ROOT
ATOM      1  C   LIG    1       -2.832   3.812  -2.490  0.00  0.00    +0.227 C 
ATOM      2  O   LIG    1       -4.059   3.687  -2.454  0.00  0.00    -0.275 OA
ATOM      3  N   LIG    1       -2.037   3.313  -1.502  0.00  0.00    -0.304 N 
ATOM      4  C   LIG    1       -2.611   2.568  -0.361  0.00  0.00    +0.089 C 
ATOM      5  C   LIG    1       -2.027   1.137  -0.378  0.00  0.00    -0.059 C 
ATOM      6  N   LIG    1       -0.482   1.188  -0.329  0.00  0.00    +0.383 N 
ATOM      7  H   LIG    1       -0.210   1.648   0.530  0.00  0.00    -0.082 HD
ATOM      8  C   LIG    1        0.043   2.028  -1.516  0.00  0.00    -0.059 C 
ATOM      9  C   LIG    1       -0.568   3.445  -1.459  0.00  0.00    +0.089 C 
ENDROOT
BRANCH   1  10
ATOM     10  C   LIG    1       -2.195   4.566  -3.698  0.00  0.00    +0.135 C 
BRANCH  10  14
ATOM     11  C   LIG    1       -0.829   8.558  -2.717  0.00  0.00    +0.000 A 
ATOM     12  C   LIG    1       -0.047   7.723  -3.510  0.00  0.00    +0.000 A 
ATOM     13  C   LIG    1       -0.499   6.443  -3.818  0.00  0.00    +0.005 A 
ATOM     14  C   LIG    1       -1.733   5.991  -3.335  0.00  0.00    -0.031 A 
ATOM     15  C   LIG    1       -2.513   6.846  -2.541  0.00  0.00    +0.005 A 
ATOM     16  C   LIG    1       -2.060   8.126  -2.232  0.00  0.00    +0.000 A 
ENDBRANCH  10  14
BRANCH  10  17
ATOM     17  C   LIG    1       -3.079   4.519  -4.959  0.00  0.00    -0.031 A 
ATOM     18  C   LIG    1       -2.792   3.591  -5.968  0.00  0.00    +0.005 A 
ATOM     19  C   LIG    1       -3.585   3.525  -7.110  0.00  0.00    +0.000 A 
ATOM     20  C   LIG    1       -4.672   4.384  -7.246  0.00  0.00    +0.000 A 
ATOM     21  C   LIG    1       -4.974   5.307  -6.248  0.00  0.00    +0.000 A 
ATOM     22  C   LIG    1       -4.181   5.373  -5.106  0.00  0.00    +0.005 A 
ENDBRANCH  10  17
ENDBRANCH   1  10
BRANCH   6  23
ATOM     23  C   LIG    1        0.097  -0.251  -0.332  0.00  0.00    -0.044 C 
BRANCH  23  24
ATOM     24  C   LIG    1        1.615  -0.285  -0.020  0.00  0.00    +0.135 C 
BRANCH  24  25
ATOM     25  O   LIG    1        1.892   0.424   1.176  0.00  0.00    -0.390 OA
ATOM     26  H   LIG    1        1.524  -0.064   1.917  0.00  0.00    +0.210 HD
ENDBRANCH  24  25
BRANCH  24  27
ATOM     27  C   LIG    1        2.129  -1.730   0.134  0.00  0.00    +0.258 C 
BRANCH  27  28
ATOM     28  O   LIG    1        3.553  -1.727   0.196  0.00  0.00    -0.489 OA
BRANCH  28  29
ATOM     29  C   LIG    1        4.239  -2.922   0.328  0.00  0.00    +0.130 A 
ATOM     30  C   LIG    1        5.662  -2.869   0.386  0.00  0.00    +0.042 A 
ATOM     31  C   LIG    1        6.415  -4.078   0.519  0.00  0.00    +0.074 A 
ATOM     32  N   LIG    1        7.777  -4.084   0.577  0.00  0.00    -0.255 NA
ATOM     33  C   LIG    1        8.429  -2.899   0.506  0.00  0.00    +0.111 A 
ATOM     34  C   LIG    1        7.784  -1.673   0.378  0.00  0.00    +0.020 A 
ATOM     35  C   LIG    1        5.733  -5.314   0.593  0.00  0.00    +0.028 A 
ATOM     36  C   LIG    1        4.345  -5.348   0.536  0.00  0.00    +0.006 A 
ATOM     37  C   LIG    1        6.393  -1.650   0.316  0.00  0.00    +0.015 A 
ATOM     38  C   LIG    1        3.610  -4.176   0.405  0.00  0.00    +0.046 A 
ENDBRANCH  28  29
ENDBRANCH  27  28
ENDBRANCH  24  27
ENDBRANCH  23  24
ENDBRANCH   6  23
TORSDOF 9
