REMARK  Name = DB14839
REMARK                            x       y       z     vdW  Elec       q    Type
REMARK                         _______ _______ _______ _____ _____    ______ ____
ROOT
ATOM      1  C   LIG    1        5.838  -0.315  -2.720  0.00  0.00    +0.138 A 
ATOM      2  C   LIG    1        5.517  -1.340  -3.607  0.00  0.00    +0.049 A 
ATOM      3  C   LIG    1        5.883  -2.652  -3.343  0.00  0.00    +0.027 A 
ATOM      4  C   LIG    1        6.580  -2.985  -2.177  0.00  0.00    +0.043 A 
ATOM      5  C   LIG    1        6.952  -1.957  -1.254  0.00  0.00    +0.007 A 
ATOM      6  C   LIG    1        7.680  -2.219  -0.057  0.00  0.00    +0.010 A 
ATOM      7  C   LIG    1        8.012  -1.190   0.818  0.00  0.00    +0.001 A 
ATOM      8  C   LIG    1        7.638   0.118   0.542  0.00  0.00    +0.001 A 
ATOM      9  C   LIG    1        6.926   0.419  -0.614  0.00  0.00    +0.012 A 
ATOM     10  C   LIG    1        6.569  -0.604  -1.534  0.00  0.00    +0.026 A 
ENDROOT
BRANCH   4  11
ATOM     11  N   LIG    1        6.951  -4.320  -1.938  0.00  0.00    -0.269 N 
ATOM     12  H   LIG    1        7.891  -4.466  -1.601  0.00  0.00    +0.156 HD
ATOM     13  C   LIG    1        6.111  -5.374  -1.935  0.00  0.00    +0.308 C 
ATOM     14  N   LIG    1        6.779  -6.516  -1.676  0.00  0.00    -0.266 N 
ATOM     15  H   LIG    1        7.787  -6.467  -1.672  0.00  0.00    +0.156 HD
ATOM     16  O   LIG    1        4.899  -5.297  -2.152  0.00  0.00    -0.252 OA
BRANCH  14  17
ATOM     17  C   LIG    1        6.246  -7.813  -1.535  0.00  0.00    +0.079 A 
ATOM     18  C   LIG    1        7.044  -8.899  -1.926  0.00  0.00    +0.163 A 
ATOM     19  C   LIG    1        6.571 -10.210  -1.771  0.00  0.00    +0.091 A 
ATOM     20  C   LIG    1        5.288 -10.418  -1.253  0.00  0.00    +0.032 A 
ATOM     21  C   LIG    1        4.473  -9.352  -0.848  0.00  0.00    -0.038 A 
ATOM     22  C   LIG    1        4.974  -8.050  -0.991  0.00  0.00    +0.031 A 
BRANCH  21  23
ATOM     23  C   LIG    1        3.067  -9.646  -0.264  0.00  0.00    -0.013 C 
ATOM     24  C   LIG    1        3.196 -10.557   0.982  0.00  0.00    +0.015 C 
ATOM     25  C   LIG    1        2.303  -8.368   0.177  0.00  0.00    +0.015 C 
ATOM     26  C   LIG    1        2.203 -10.358  -1.333  0.00  0.00    +0.015 C 
ENDBRANCH  21  23
BRANCH  18  27
ATOM     27  O   LIG    1        8.301  -8.679  -2.446  0.00  0.00    -0.491 OA
ATOM     28  C   LIG    1        8.328  -8.534  -3.860  0.00  0.00    +0.277 C 
ENDBRANCH  18  27
BRANCH  19  29
ATOM     29  N   LIG    1        7.386 -11.279  -2.182  0.00  0.00    -0.217 N 
ATOM     30  H   LIG    1        8.383 -11.122  -2.188  0.00  0.00    +0.173 HD
BRANCH  29  31
ATOM     31  S   LIG    1        6.821 -12.953  -2.344  0.00  0.00    +0.040 S 
ATOM     32  O   LIG    1        5.750 -12.947  -3.346  0.00  0.00    -0.155 OA
ATOM     33  O   LIG    1        6.568 -13.451  -0.987  0.00  0.00    -0.155 OA
ATOM     34  C   LIG    1        8.336 -13.822  -3.051  0.00  0.00    +0.218 C 
ENDBRANCH  29  31
ENDBRANCH  19  29
ENDBRANCH  14  17
ENDBRANCH   4  11
BRANCH   1  35
ATOM     35  O   LIG    1        5.439   0.973  -3.010  0.00  0.00    -0.437 OA
BRANCH  35  38
ATOM     36  C   LIG    1        2.013   1.012  -1.910  0.00  0.00    +0.223 A 
ATOM     37  N   LIG    1        3.267   0.548  -2.147  0.00  0.00    -0.179 NA
ATOM     38  C   LIG    1        4.148   1.400  -2.751  0.00  0.00    +0.225 A 
ATOM     39  C   LIG    1        3.780   2.697  -3.114  0.00  0.00    +0.087 A 
ATOM     40  C   LIG    1        2.467   3.085  -2.839  0.00  0.00    +0.119 A 
ATOM     41  N   LIG    1        1.571   2.256  -2.243  0.00  0.00    -0.222 NA
BRANCH  36  42
ATOM     42  N   LIG    1        1.145   0.086  -1.313  0.00  0.00    -0.283 N 
ATOM     43  H   LIG    1        1.555  -0.831  -1.207  0.00  0.00    +0.155 HD
BRANCH  42  46
ATOM     44  C   LIG    1       -2.033   1.437   0.150  0.00  0.00    +0.040 A 
ATOM     45  C   LIG    1       -0.731   1.394  -0.372  0.00  0.00    +0.036 A 
ATOM     46  C   LIG    1       -0.157   0.186  -0.791  0.00  0.00    +0.035 A 
ATOM     47  C   LIG    1       -0.890  -0.995  -0.661  0.00  0.00    +0.040 A 
ATOM     48  C   LIG    1       -2.184  -0.976  -0.138  0.00  0.00    +0.027 A 
ATOM     49  C   LIG    1       -2.751   0.236   0.264  0.00  0.00    +0.030 A 
BRANCH  44  52
ATOM     50  N   LIG    1       -3.970   2.821   0.625  0.00  0.00    -0.309 N 
ATOM     51  H   LIG    1       -4.495   2.020   0.306  0.00  0.00    +0.149 HD
ATOM     52  C   LIG    1       -2.626   2.757   0.594  0.00  0.00    +0.244 C 
ATOM     53  O   LIG    1       -1.901   3.711   0.883  0.00  0.00    -0.270 OA
BRANCH  50  54
ATOM     54  C   LIG    1       -4.756   3.984   1.036  0.00  0.00    +0.132 C 
BRANCH  54  55
ATOM     55  C   LIG    1       -6.139   3.586   1.572  0.00  0.00    +0.178 C 
BRANCH  55  56
ATOM     56  O   LIG    1       -5.987   2.752   2.714  0.00  0.00    -0.376 OA
BRANCH  56  57
ATOM     57  C   LIG    1       -7.215   2.282   3.251  0.00  0.00    +0.188 C 
BRANCH  57  58
ATOM     58  C   LIG    1       -6.916   1.409   4.476  0.00  0.00    +0.188 C 
BRANCH  58  59
ATOM     59  O   LIG    1       -8.139   0.914   5.006  0.00  0.00    -0.375 OA
BRANCH  59  60
ATOM     60  C   LIG    1       -7.969   0.087   6.149  0.00  0.00    +0.188 C 
BRANCH  60  61
ATOM     61  C   LIG    1       -9.344  -0.389   6.631  0.00  0.00    +0.187 C 
BRANCH  61  63
ATOM     62  C   LIG    1      -10.400  -1.683   8.319  0.00  0.00    +0.194 C 
ATOM     63  O   LIG    1       -9.176  -1.201   7.785  0.00  0.00    -0.381 OA
ENDBRANCH  61  63
ENDBRANCH  60  61
ENDBRANCH  59  60
ENDBRANCH  58  59
ENDBRANCH  57  58
ENDBRANCH  56  57
ENDBRANCH  55  56
ENDBRANCH  54  55
ENDBRANCH  50  54
ENDBRANCH  44  52
BRANCH  48  64
ATOM     64  C   LIG    1       -2.938  -2.215  -0.008  0.00  0.00    -0.070 C 
ATOM     65  C   LIG    1       -3.570  -3.253   0.110  0.00  0.00    +0.009 C 
ENDBRANCH  48  64
ENDBRANCH  42  46
ENDBRANCH  36  42
ENDBRANCH  35  38
ENDBRANCH   1  35
TORSDOF 21
