REMARK  Name = DB14932
REMARK                            x       y       z     vdW  Elec       q    Type
REMARK                         _______ _______ _______ _____ _____    ______ ____
ROOT
ATOM      1  C   LIG    1        1.509  -0.096   0.250  0.00  0.00    +0.273 C 
ATOM      2  N   LIG    1        2.273  -1.094  -0.230  0.00  0.00    -0.308 N 
ATOM      3  H   LIG    1        1.801  -1.904  -0.607  0.00  0.00    +0.149 HD
ATOM      4  O   LIG    1        1.962   0.919   0.782  0.00  0.00    -0.270 OA
ENDROOT
BRANCH   2   5
ATOM      5  C   LIG    1        3.720  -1.236  -0.030  0.00  0.00    +0.073 C 
ATOM      6  C   LIG    1        4.037  -2.059   1.244  0.00  0.00    +0.026 C 
ATOM      7  C   LIG    1        3.497  -3.513   1.153  0.00  0.00    -0.003 C 
ATOM      8  C   LIG    1        3.640  -4.293   2.483  0.00  0.00    +0.004 C 
ATOM      9  C   LIG    1        2.966  -5.673   2.388  0.00  0.00    +0.004 C 
ATOM     10  C   LIG    1        3.507  -6.504   1.196  0.00  0.00    -0.004 C 
ATOM     11  C   LIG    1        3.394  -5.676  -0.133  0.00  0.00    -0.001 C 
ATOM     12  C   LIG    1        3.742  -6.530  -1.393  0.00  0.00    +0.005 C 
ATOM     13  C   LIG    1        3.023  -7.901  -1.413  0.00  0.00    +0.007 C 
ATOM     14  C   LIG    1        3.297  -8.726  -0.123  0.00  0.00    -0.026 C 
ATOM     15  C   LIG    1        4.813  -9.079   0.022  0.00  0.00    +0.012 C 
ATOM     16  C   LIG    1        2.409 -10.003   0.065  0.00  0.00    -0.002 C 
ATOM     17  C   LIG    1        2.313 -10.156   1.611  0.00  0.00    +0.004 C 
ATOM     18  C   LIG    1        2.665  -8.799   2.240  0.00  0.00    +0.004 C 
ATOM     19  C   LIG    1        2.754  -7.855   1.042  0.00  0.00    -0.001 C 
ATOM     20  C   LIG    1        4.154  -4.295  -0.046  0.00  0.00    -0.026 C 
ATOM     21  C   LIG    1        5.690  -4.496   0.148  0.00  0.00    +0.012 C 
ATOM     22  C   LIG    1        3.904  -3.448  -1.338  0.00  0.00    +0.009 C 
ATOM     23  C   LIG    1        4.376  -1.976  -1.220  0.00  0.00    +0.023 C 
BRANCH  16  24
ATOM     24  C   LIG    1        2.826 -11.331  -0.659  0.00  0.00    -0.010 C 
ATOM     25  C   LIG    1        3.015 -11.161  -2.185  0.00  0.00    +0.008 C 
BRANCH  24  26
ATOM     26  C   LIG    1        1.818 -12.481  -0.366  0.00  0.00    +0.003 C 
BRANCH  26  27
ATOM     27  C   LIG    1        2.322 -13.898  -0.714  0.00  0.00    +0.001 C 
BRANCH  27  28
ATOM     28  C   LIG    1        1.320 -15.003  -0.315  0.00  0.00    +0.003 C 
BRANCH  28  29
ATOM     29  C   LIG    1        1.776 -16.457  -0.592  0.00  0.00    -0.017 C 
ATOM     30  C   LIG    1        1.995 -16.743  -2.091  0.00  0.00    +0.007 C 
ATOM     31  C   LIG    1        3.004 -16.867   0.244  0.00  0.00    +0.007 C 
ENDBRANCH  28  29
ENDBRANCH  27  28
ENDBRANCH  26  27
ENDBRANCH  24  26
ENDBRANCH  16  24
ENDBRANCH   2   5
BRANCH   1  32
ATOM     32  C   LIG    1       -0.050  -0.312   0.155  0.00  0.00    +0.251 C 
ATOM     33  O   LIG    1       -0.313  -0.914  -1.100  0.00  0.00    -0.333 OA
ATOM     34  C   LIG    1       -0.190  -0.108  -2.289  0.00  0.00    +0.176 C 
ATOM     35  C   LIG    1       -1.132   1.126  -2.213  0.00  0.00    +0.133 C 
ATOM     36  C   LIG    1       -0.850   1.885  -0.899  0.00  0.00    +0.143 C 
ATOM     37  C   LIG    1       -0.940   0.949   0.320  0.00  0.00    +0.108 C 
BRANCH  35  38
ATOM     38  N   LIG    1       -1.108   1.999  -3.398  0.00  0.00    -0.308 N 
ATOM     39  H   LIG    1       -0.390   2.709  -3.399  0.00  0.00    +0.149 HD
ATOM     40  C   LIG    1       -1.977   1.986  -4.424  0.00  0.00    +0.210 C 
ATOM     41  O   LIG    1       -2.924   1.206  -4.517  0.00  0.00    -0.276 OA
ATOM     42  C   LIG    1       -1.741   3.015  -5.524  0.00  0.00    +0.109 C 
ENDBRANCH  35  38
BRANCH  32  44
ATOM     43  C   LIG    1       -0.366  -0.892   2.529  0.00  0.00    +0.198 C 
ATOM     44  O   LIG    1       -0.391  -1.256   1.146  0.00  0.00    -0.345 OA
ENDBRANCH  32  44
BRANCH  36  45
ATOM     45  O   LIG    1       -1.687   3.014  -0.730  0.00  0.00    -0.390 OA
ATOM     46  H   LIG    1       -1.663   3.277   0.193  0.00  0.00    +0.210 HD
ENDBRANCH  36  45
BRANCH  34  47
ATOM     47  C   LIG    1       -0.414  -1.042  -3.516  0.00  0.00    +0.176 C 
BRANCH  47  48
ATOM     48  O   LIG    1       -1.738  -1.549  -3.482  0.00  0.00    -0.387 OA
ATOM     49  H   LIG    1       -1.842  -2.181  -4.198  0.00  0.00    +0.210 HD
ENDBRANCH  47  48
BRANCH  47  50
ATOM     50  C   LIG    1        0.616  -2.206  -3.626  0.00  0.00    +0.171 C 
BRANCH  50  51
ATOM     51  O   LIG    1        1.919  -1.660  -3.725  0.00  0.00    -0.387 OA
ATOM     52  H   LIG    1        1.973  -1.139  -4.529  0.00  0.00    +0.210 HD
ENDBRANCH  50  51
BRANCH  50  53
ATOM     53  C   LIG    1        0.416  -3.147  -4.839  0.00  0.00    +0.189 C 
BRANCH  53  54
ATOM     54  O   LIG    1       -0.673  -4.029  -4.661  0.00  0.00    -0.392 OA
ATOM     55  H   LIG    1       -0.713  -4.624  -5.413  0.00  0.00    +0.210 HD
ENDBRANCH  53  54
ENDBRANCH  50  53
ENDBRANCH  47  50
ENDBRANCH  34  47
ENDBRANCH   1  32
TORSDOF 16
