REMARK  Name = DB14175
REMARK                            x       y       z     vdW  Elec       q    Type
REMARK                         _______ _______ _______ _____ _____    ______ ____
ROOT
ATOM      1  C   LIG    1       -0.495   2.436   1.076  0.00  0.00    +0.014 C 
ATOM      2  C   LIG    1       -0.416   1.523   0.075  0.00  0.00    -0.008 C 
ENDROOT
BRANCH   1   3
ATOM      3  C   LIG    1       -0.943   3.846   1.051  0.00  0.00    -0.025 A 
ATOM      4  C   LIG    1       -0.499   4.747   0.075  0.00  0.00    +0.008 A 
ATOM      5  C   LIG    1       -0.932   6.070   0.093  0.00  0.00    +0.001 A 
ATOM      6  C   LIG    1       -1.803   6.497   1.092  0.00  0.00    +0.000 A 
ATOM      7  C   LIG    1       -2.242   5.613   2.074  0.00  0.00    +0.001 A 
ATOM      8  C   LIG    1       -1.809   4.290   2.055  0.00  0.00    +0.008 A 
ENDBRANCH   1   3
BRANCH   2   9
ATOM      9  C   LIG    1       -0.893   1.813  -1.285  0.00  0.00    +0.254 C 
ATOM     10  O   LIG    1       -0.793   1.030  -2.230  0.00  0.00    -0.296 OA
ENDBRANCH   2   9
BRANCH   2  11
ATOM     11  C   LIG    1        0.132   0.113   0.317  0.00  0.00    +0.038 C 
BRANCH  11  12
ATOM     12  C   LIG    1        1.571  -0.099  -0.196  0.00  0.00    +0.005 C 
BRANCH  12  13
ATOM     13  C   LIG    1        2.112  -1.506   0.113  0.00  0.00    +0.000 C 
BRANCH  13  14
ATOM     14  C   LIG    1        3.541  -1.729  -0.414  0.00  0.00    -0.003 C 
ATOM     15  C   LIG    1        4.084  -3.128  -0.091  0.00  0.00    +0.004 C 
ENDBRANCH  13  14
ENDBRANCH  12  13
ENDBRANCH  11  12
ENDBRANCH   2  11
TORSDOF 6
