REMARK  Name = DB14854
REMARK                            x       y       z     vdW  Elec       q    Type
REMARK                         _______ _______ _______ _____ _____    ______ ____
ROOT
ATOM      1  C   LIG    1        1.490   0.059  -0.272  0.00  0.00    +0.063 C 
ATOM      2  C   LIG    1        2.022  -1.192   0.515  0.00  0.00    -0.043 C 
ATOM      3  N   LIG    1        2.935  -2.042  -0.416  0.00  0.00    +0.383 N 
ATOM      4  H   LIG    1        3.235  -2.874   0.074  0.00  0.00    -0.081 HD
ATOM      5  C   LIG    1        2.134  -2.450  -1.682  0.00  0.00    -0.078 C 
ATOM      6  C   LIG    1        1.721  -1.166  -2.456  0.00  0.00    -0.014 C 
ATOM      7  C   LIG    1        4.172  -1.238  -0.877  0.00  0.00    -0.078 C 
ATOM      8  C   LIG    1        3.675   0.051  -1.570  0.00  0.00    -0.014 C 
ATOM      9  C   LIG    1        2.125   0.136  -1.698  0.00  0.00    +0.004 C 
ENDROOT
BRANCH   1  11
ATOM     10  C   LIG    1       -0.811   0.846   0.372  0.00  0.00    +0.244 C 
ATOM     11  N   LIG    1        0.021   0.031  -0.306  0.00  0.00    -0.310 N 
ATOM     12  H   LIG    1       -0.392  -0.686  -0.885  0.00  0.00    +0.149 HD
ATOM     13  O   LIG    1       -0.412   1.767   1.087  0.00  0.00    -0.270 OA
BRANCH  10  20
ATOM     14  F   LIG    1       -5.474   2.297   0.828  0.00  0.00    -0.205 F 
ATOM     15  C   LIG    1       -4.594   1.342   0.453  0.00  0.00    +0.127 A 
ATOM     16  C   LIG    1       -5.057   0.136  -0.069  0.00  0.00    +0.076 A 
ATOM     17  C   LIG    1       -4.149  -0.849  -0.453  0.00  0.00    +0.127 A 
ATOM     18  F   LIG    1       -4.596  -2.021  -0.956  0.00  0.00    -0.205 F 
ATOM     19  C   LIG    1       -2.778  -0.628  -0.316  0.00  0.00    +0.051 A 
ATOM     20  C   LIG    1       -2.293   0.585   0.205  0.00  0.00    +0.042 A 
ATOM     21  C   LIG    1       -3.224   1.564   0.591  0.00  0.00    +0.051 A 
ENDBRANCH  10  20
ENDBRANCH   1  11
BRANCH   2  22
ATOM     22  C   LIG    1        2.752  -0.894   1.849  0.00  0.00    +0.023 C 
BRANCH  22  23
ATOM     23  C   LIG    1        1.833  -0.271   2.892  0.00  0.00    -0.031 A 
ATOM     24  C   LIG    1        0.795  -1.013   3.470  0.00  0.00    +0.006 A 
ATOM     25  C   LIG    1       -0.051  -0.407   4.400  0.00  0.00    +0.020 A 
ATOM     26  C   LIG    1        0.172   0.931   4.731  0.00  0.00    +0.111 A 
ATOM     27  N   LIG    1        1.175   1.667   4.190  0.00  0.00    -0.263 NA
ATOM     28  C   LIG    1        1.988   1.063   3.285  0.00  0.00    +0.114 A 
ENDBRANCH  22  23
ENDBRANCH   2  22
TORSDOF 4
