REMARK  Name = DB14860
REMARK                            x       y       z     vdW  Elec       q    Type
REMARK                         _______ _______ _______ _____ _____    ______ ____
ROOT
ATOM      1  C   LIG    1        1.170   0.257  -0.397  0.00  0.00    +0.268 C 
ATOM      2  N   LIG    1        1.895  -0.750   0.143  0.00  0.00    -0.280 N 
ATOM      3  H   LIG    1        1.366  -1.517   0.531  0.00  0.00    +0.155 HD
ATOM      4  O   LIG    1        1.642   1.311  -0.827  0.00  0.00    -0.268 OA
ENDROOT
BRANCH   1   9
ATOM      5  C   LIG    1       -2.266  -1.415  -0.365  0.00  0.00    +0.165 A 
ATOM      6  C   LIG    1       -3.029  -0.239  -0.378  0.00  0.00    +0.181 A 
ATOM      7  N   LIG    1       -2.462   0.995  -0.407  0.00  0.00    -0.130 NA
ATOM      8  N   LIG    1       -1.125   1.127  -0.417  0.00  0.00    -0.143 NA
ATOM      9  C   LIG    1       -0.323   0.025  -0.409  0.00  0.00    +0.152 A 
ATOM     10  C   LIG    1       -0.873  -1.264  -0.404  0.00  0.00    +0.084 A 
BRANCH   6  11
ATOM     11  N   LIG    1       -4.423  -0.287  -0.354  0.00  0.00    -0.339 N 
ATOM     12  H   LIG    1       -4.949   0.574  -0.361  0.00  0.00    +0.144 HD
ATOM     13  H   LIG    1       -4.887  -1.184  -0.328  0.00  0.00    +0.144 HD
ENDBRANCH   6  11
BRANCH   5  14
ATOM     14  O   LIG    1       -2.910  -2.642  -0.321  0.00  0.00    -0.481 OA
BRANCH  14  16
ATOM     15  C   LIG    1       -3.151  -5.029  -0.058  0.00  0.00    +0.057 C 
ATOM     16  C   LIG    1       -2.197  -3.828   0.057  0.00  0.00    +0.204 C 
BRANCH  16  17
ATOM     17  C   LIG    1       -1.559  -3.721   1.462  0.00  0.00    +0.032 A 
ATOM     18  C   LIG    1       -2.299  -3.247   2.569  0.00  0.00    +0.084 A 
ATOM     19 CL   LIG    1       -3.966  -2.787   2.434  0.00  0.00    -0.080 Cl
ATOM     20  C   LIG    1       -1.695  -3.137   3.826  0.00  0.00    +0.142 A 
ATOM     21  F   LIG    1       -2.397  -2.678   4.888  0.00  0.00    -0.204 F 
ATOM     22  C   LIG    1       -0.364  -3.500   4.001  0.00  0.00    +0.041 A 
ATOM     23  C   LIG    1        0.372  -3.981   2.924  0.00  0.00    +0.023 A 
ATOM     24  C   LIG    1       -0.213  -4.097   1.663  0.00  0.00    +0.049 A 
ATOM     25 CL   LIG    1        0.782  -4.713   0.386  0.00  0.00    -0.083 Cl
ENDBRANCH  16  17
ENDBRANCH  14  16
ENDBRANCH   5  14
ENDBRANCH   1   9
BRANCH   2  26
ATOM     26  C   LIG    1        3.288  -0.880   0.289  0.00  0.00    +0.034 A 
ATOM     27  C   LIG    1        4.236  -0.093  -0.381  0.00  0.00    +0.024 A 
ATOM     28  C   LIG    1        5.595  -0.317  -0.176  0.00  0.00    +0.015 A 
ATOM     29  C   LIG    1        6.030  -1.316   0.703  0.00  0.00    +0.037 A 
ATOM     30  C   LIG    1        5.075  -2.115   1.349  0.00  0.00    +0.015 A 
ATOM     31  C   LIG    1        3.717  -1.897   1.142  0.00  0.00    +0.024 A 
BRANCH  29  32
ATOM     32  C   LIG    1        7.515  -1.557   0.893  0.00  0.00    +0.247 C 
ATOM     33  N   LIG    1        7.955  -2.019   2.098  0.00  0.00    -0.301 N 
ATOM     34  C   LIG    1        7.414  -1.417   3.334  0.00  0.00    +0.092 C 
ATOM     35  C   LIG    1        8.223  -0.149   3.716  0.00  0.00    -0.057 C 
ATOM     36  C   LIG    1        7.814   0.405   5.091  0.00  0.00    -0.012 C 
ATOM     37  N   LIG    1        9.728  -0.478   3.820  0.00  0.00    +0.384 N 
ATOM     38  H   LIG    1       10.247   0.378   3.955  0.00  0.00    -0.085 HD
ATOM     39  H   LIG    1        9.894  -1.047   4.638  0.00  0.00    -0.085 HD
ATOM     40  C   LIG    1       10.263  -1.205   2.569  0.00  0.00    -0.057 C 
ATOM     41  C   LIG    1       11.704  -1.625   2.903  0.00  0.00    -0.012 C 
ATOM     42  C   LIG    1        9.369  -2.427   2.221  0.00  0.00    +0.092 C 
ATOM     43  O   LIG    1        8.277  -1.342  -0.054  0.00  0.00    -0.270 OA
ENDBRANCH  29  32
ENDBRANCH   2  26
TORSDOF 7
