REMARK  Name = DB14596
REMARK                            x       y       z     vdW  Elec       q    Type
REMARK                         _______ _______ _______ _____ _____    ______ ____
ROOT
ATOM      1  C   LIG    1       -1.048  -0.541  -1.126  0.00  0.00    +0.024 C 
ATOM      2  C   LIG    1       -2.559  -0.186  -1.369  0.00  0.00    +0.016 C 
ATOM      3  C   LIG    1       -0.218  -0.364  -2.438  0.00  0.00    +0.043 C 
ATOM      4  C   LIG    1       -0.610  -1.358  -3.568  0.00  0.00    +0.120 C 
ATOM      5  C   LIG    1       -0.585  -2.852  -3.069  0.00  0.00    +0.035 C 
ATOM      6  C   LIG    1       -1.347  -3.054  -1.709  0.00  0.00    -0.000 C 
ATOM      7  C   LIG    1       -1.123  -4.492  -1.184  0.00  0.00    +0.008 C 
ATOM      8  C   LIG    1       -1.534  -5.565  -2.203  0.00  0.00    +0.032 C 
ATOM      9  C   LIG    1       -0.750  -5.338  -3.494  0.00  0.00    -0.056 C 
ATOM     10  C   LIG    1        0.088  -6.276  -3.998  0.00  0.00    +0.051 C 
ATOM     11  C   LIG    1        0.898  -6.121  -5.207  0.00  0.00    +0.179 C 
ATOM     12  O   LIG    1        1.637  -7.003  -5.641  0.00  0.00    -0.288 OA
ATOM     13  C   LIG    1        0.750  -4.817  -5.845  0.00  0.00    +0.047 C 
ATOM     14  C   LIG    1       -0.067  -3.846  -5.389  0.00  0.00    -0.012 C 
ATOM     15  C   LIG    1       -0.969  -3.943  -4.147  0.00  0.00    +0.013 C 
ATOM     16  C   LIG    1       -2.437  -3.876  -4.654  0.00  0.00    +0.020 C 
ATOM     17  C   LIG    1       -0.849  -2.008  -0.671  0.00  0.00    +0.003 C 
ATOM     18  C   LIG    1       -1.361  -2.052   0.778  0.00  0.00    +0.009 C 
ATOM     19  C   LIG    1       -1.125  -0.627   1.326  0.00  0.00    +0.061 C 
ATOM     20  C   LIG    1       -0.490   0.196   0.154  0.00  0.00    +0.218 C 
ENDROOT
BRANCH   4  21
ATOM     21  O   LIG    1       -1.817  -0.960  -4.184  0.00  0.00    -0.391 OA
ATOM     22  H   LIG    1       -1.985  -1.542  -4.928  0.00  0.00    +0.210 HD
ENDBRANCH   4  21
BRANCH  20  23
ATOM     23  C   LIG    1       -0.840   1.724   0.158  0.00  0.00    +0.353 C 
ATOM     24  O   LIG    1       -1.768   2.176   0.834  0.00  0.00    -0.246 OA
BRANCH  23  25
ATOM     25  O   LIG    1       -0.018   2.466  -0.625  0.00  0.00    -0.446 OA
BRANCH  25  26
ATOM     26  C   LIG    1       -0.186   3.872  -0.728  0.00  0.00    +0.340 C 
ATOM     27 CL   LIG    1        1.031   4.594  -1.809  0.00  0.00    -0.081 Cl
ENDBRANCH  25  26
ENDBRANCH  23  25
ENDBRANCH  20  23
BRANCH  20  28
ATOM     28  O   LIG    1        0.963   0.081   0.159  0.00  0.00    -0.415 OA
BRANCH  28  29
ATOM     29  C   LIG    1        1.804   0.496   1.154  0.00  0.00    +0.511 C 
ATOM     30  O   LIG    1        1.474   1.038   2.212  0.00  0.00    -0.203 OA
BRANCH  29  31
ATOM     31  O   LIG    1        3.059   0.213   0.762  0.00  0.00    -0.434 OA
BRANCH  31  32
ATOM     32  C   LIG    1        4.166   0.538   1.592  0.00  0.00    +0.232 C 
ATOM     33  C   LIG    1        5.467   0.158   0.877  0.00  0.00    +0.048 C 
ENDBRANCH  31  32
ENDBRANCH  29  31
ENDBRANCH  28  29
ENDBRANCH  20  28
TORSDOF 8
