REMARK  Name = DB14512
REMARK                            x       y       z     vdW  Elec       q    Type
REMARK                         _______ _______ _______ _____ _____    ______ ____
ROOT
ATOM      1  C   LIG    1       -4.087  -2.170   1.387  0.00  0.00    +0.010 C 
ATOM      2  C   LIG    1       -4.918  -3.116   2.270  0.00  0.00    +0.032 C 
ATOM      3  C   LIG    1       -4.824  -2.673   3.732  0.00  0.00    -0.055 C 
ATOM      4  C   LIG    1       -3.375  -2.600   4.300  0.00  0.00    +0.029 C 
ATOM      5  C   LIG    1       -2.843  -4.062   4.375  0.00  0.00    +0.022 C 
ATOM      6  C   LIG    1       -3.451  -2.108   5.757  0.00  0.00    -0.011 C 
ATOM      7  C   LIG    1       -4.582  -1.811   6.426  0.00  0.00    +0.047 C 
ATOM      8  C   LIG    1       -5.920  -1.911   5.849  0.00  0.00    +0.179 C 
ATOM      9  O   LIG    1       -6.944  -1.644   6.474  0.00  0.00    -0.288 OA
ATOM     10  C   LIG    1       -2.533  -1.608   3.377  0.00  0.00    +0.086 C 
ATOM     11 CL   LIG    1       -3.310   0.022   3.514  0.00  0.00    -0.114 Cl
ATOM     12  C   LIG    1       -1.036  -1.358   3.825  0.00  0.00    +0.137 C 
ATOM     13  C   LIG    1       -0.239  -0.491   2.803  0.00  0.00    +0.044 C 
ATOM     14  C   LIG    1       -0.270  -1.038   1.341  0.00  0.00    +0.021 C 
ATOM     15  C   LIG    1        0.444  -2.439   1.271  0.00  0.00    +0.016 C 
ATOM     16  C   LIG    1       -1.765  -1.122   0.940  0.00  0.00    +0.005 C 
ATOM     17  C   LIG    1       -1.746  -1.382  -0.571  0.00  0.00    +0.012 C 
ATOM     18  C   LIG    1       -0.468  -0.676  -1.093  0.00  0.00    +0.038 C 
ATOM     19  C   LIG    1       -0.790   0.285  -2.266  0.00  0.00    +0.012 C 
ATOM     20  C   LIG    1        0.244  -0.073   0.182  0.00  0.00    +0.180 C 
ATOM     21  C   LIG    1       -5.925  -2.358   4.455  0.00  0.00    +0.051 C 
ATOM     22  C   LIG    1       -2.619  -2.045   1.862  0.00  0.00    +0.018 C 
ENDROOT
BRANCH  12  23
ATOM     23  O   LIG    1       -0.305  -2.523   4.147  0.00  0.00    -0.390 OA
ATOM     24  H   LIG    1       -0.766  -2.988   4.849  0.00  0.00    +0.210 HD
ENDBRANCH  12  23
BRANCH  20  25
ATOM     25  C   LIG    1        1.805   0.012   0.003  0.00  0.00    +0.192 C 
ATOM     26  O   LIG    1        2.573  -0.423   0.861  0.00  0.00    -0.292 OA
BRANCH  25  27
ATOM     27  C   LIG    1        2.353   0.680  -1.268  0.00  0.00    +0.187 C 
ATOM     28 CL   LIG    1        4.130   0.876  -1.224  0.00  0.00    -0.117 Cl
ENDBRANCH  25  27
ENDBRANCH  20  25
BRANCH  20  29
ATOM     29  O   LIG    1       -0.259   1.295   0.292  0.00  0.00    -0.444 OA
BRANCH  29  30
ATOM     30  C   LIG    1        0.189   2.318   1.098  0.00  0.00    +0.376 C 
ATOM     31  O   LIG    1        1.115   2.252   1.908  0.00  0.00    -0.241 OA
BRANCH  30  32
ATOM     32  C   LIG    1       -0.594   3.524   0.869  0.00  0.00    +0.211 A 
ATOM     33  C   LIG    1       -1.679   3.801   0.043  0.00  0.00    +0.056 A 
ATOM     34  C   LIG    1       -2.008   5.143   0.247  0.00  0.00    +0.042 A 
ATOM     35  C   LIG    1       -1.114   5.625   1.188  0.00  0.00    +0.196 A 
ATOM     36  O   LIG    1       -0.256   4.642   1.566  0.00  0.00    -0.456 OA
ENDBRANCH  30  32
ENDBRANCH  29  30
ENDBRANCH  20  29
TORSDOF 6
