REMARK  Name = DB14935
REMARK                            x       y       z     vdW  Elec       q    Type
REMARK                         _______ _______ _______ _____ _____    ______ ____
ROOT
ATOM      1  C   LIG    1        1.297  -0.134  -0.125  0.00  0.00    -0.001 A 
ATOM      2  C   LIG    1        2.056  -1.225  -0.558  0.00  0.00    +0.013 A 
ATOM      3  C   LIG    1        3.451  -1.204  -0.547  0.00  0.00    +0.047 A 
ATOM      4  C   LIG    1        4.112  -0.054  -0.085  0.00  0.00    +0.138 A 
ATOM      5  N   LIG    1        5.438   0.194   0.021  0.00  0.00    -0.235 NA
ATOM      6  C   LIG    1        5.500   1.405   0.521  0.00  0.00    +0.144 A 
ATOM      7  C   LIG    1        4.257   2.022   0.726  0.00  0.00    +0.128 A 
ATOM      8  N   LIG    1        3.345   1.044   0.353  0.00  0.00    -0.295 N 
ATOM      9  C   LIG    1        1.969   1.005   0.331  0.00  0.00    +0.102 A 
ENDROOT
BRANCH   1  15
ATOM     10  C   LIG    1       -4.334  -1.780   0.284  0.00  0.00    +0.286 A 
ATOM     11  O   LIG    1       -4.295  -0.496  -0.180  0.00  0.00    -0.425 OA
ATOM     12  C   LIG    1       -2.962  -0.224  -0.233  0.00  0.00    +0.157 A 
ATOM     13  C   LIG    1       -2.323   0.950  -0.635  0.00  0.00    +0.049 A 
ATOM     14  C   LIG    1       -0.927   0.942  -0.583  0.00  0.00    +0.012 A 
ATOM     15  C   LIG    1       -0.193  -0.179  -0.154  0.00  0.00    -0.014 A 
ATOM     16  C   LIG    1       -0.871  -1.346   0.246  0.00  0.00    +0.040 A 
ATOM     17  C   LIG    1       -2.273  -1.364   0.204  0.00  0.00    +0.112 A 
ATOM     18  N   LIG    1       -3.172  -2.343   0.528  0.00  0.00    -0.196 NA
BRANCH  10  19
ATOM     19  N   LIG    1       -5.568  -2.335   0.447  0.00  0.00    -0.313 N 
ATOM     20  H   LIG    1       -6.411  -1.821   0.236  0.00  0.00    +0.147 HD
ATOM     21  H   LIG    1       -5.678  -3.279   0.787  0.00  0.00    +0.147 HD
ENDBRANCH  10  19
ENDBRANCH   1  15
BRANCH   7  22
ATOM     22  C   LIG    1        3.958   3.323   1.305  0.00  0.00    +0.265 C 
ATOM     23  N   LIG    1        4.906   4.304   1.237  0.00  0.00    -0.292 N 
ATOM     24  C   LIG    1        4.659   5.585   1.929  0.00  0.00    +0.136 C 
ATOM     25  C   LIG    1        3.985   6.536   0.910  0.00  0.00    +0.179 C 
ATOM     26  O   LIG    1        4.808   6.681  -0.248  0.00  0.00    -0.377 OA
ATOM     27  C   LIG    1        5.090   5.444  -0.903  0.00  0.00    +0.179 C 
ATOM     28  C   LIG    1        5.800   4.474   0.070  0.00  0.00    +0.136 C 
ATOM     29  O   LIG    1        2.877   3.490   1.875  0.00  0.00    -0.268 OA
ENDBRANCH   7  22
TORSDOF 3
