REMARK  Name = DB14495
REMARK                            x       y       z     vdW  Elec       q    Type
REMARK                         _______ _______ _______ _____ _____    ______ ____
ROOT
ATOM      1  C   LIG    1        1.587   0.126   0.035  0.00  0.00    +0.182 C 
ENDROOT
BRANCH   1   2
ATOM      2  O   LIG    1        1.855   0.569   1.370  0.00  0.00    -0.376 OA
ATOM      3  H   LIG    1        1.415  -0.025   1.980  0.00  0.00    +0.211 HD
ENDBRANCH   1   2
BRANCH   1   4
ATOM      4  C   LIG    1        2.285   1.037  -1.050  0.00  0.00    +0.338 C 
ATOM      5  O   LIG    1        2.112   0.736  -2.257  0.00  0.00    -0.248 OA
BRANCH   4   6
ATOM      6  O   LIG    1        2.982   2.019  -0.696  0.00  0.00    -0.479 OA
ATOM      7  H   LIG    1        3.089   2.213   0.215  0.00  0.00    +0.295 HD
ENDBRANCH   4   6
ENDBRANCH   1   4
BRANCH   1   8
ATOM      8  C   LIG    1        0.018   0.117  -0.164  0.00  0.00    +0.167 C 
BRANCH   8   9
ATOM      9  C   LIG    1       -0.776   1.454  -0.084  0.00  0.00    +0.308 C 
ATOM     10  O   LIG    1       -0.313   2.430   0.549  0.00  0.00    -0.251 OA
BRANCH   9  11
ATOM     11  O   LIG    1       -1.899   1.462  -0.638  0.00  0.00    -0.481 OA
ATOM     12  H   LIG    1       -2.199   0.704  -1.100  0.00  0.00    +0.295 HD
ENDBRANCH   9  11
ENDBRANCH   8   9
ENDBRANCH   1   8
BRANCH   1  13
ATOM     13  C   LIG    1        2.082  -1.372  -0.086  0.00  0.00    +0.167 C 
BRANCH  13  14
ATOM     14  C   LIG    1        3.595  -1.697   0.080  0.00  0.00    +0.308 C 
ATOM     15  O   LIG    1        3.986  -2.773  -0.426  0.00  0.00    -0.251 OA
BRANCH  14  16
ATOM     16  O   LIG    1        4.340  -0.932   0.735  0.00  0.00    -0.481 OA
ATOM     17  H   LIG    1        3.997  -0.138   1.093  0.00  0.00    +0.295 HD
ENDBRANCH  14  16
ENDBRANCH  13  14
ENDBRANCH   1  13
TORSDOF 9
