REMARK  Name = DB14868
REMARK                            x       y       z     vdW  Elec       q    Type
REMARK                         _______ _______ _______ _____ _____    ______ ____
ROOT
ATOM      1  N   LIG    1        1.888  -0.133   0.336  0.00  0.00    +0.382 N 
ATOM      2  H   LIG    1        2.219   0.663  -0.191  0.00  0.00    -0.081 HD
ENDROOT
BRANCH   1   3
ATOM      3  C   LIG    1        0.343  -0.110   0.225  0.00  0.00    -0.077 C 
BRANCH   3   4
ATOM      4  C   LIG    1       -0.185   1.333   0.276  0.00  0.00    +0.003 C 
BRANCH   4   5
ATOM      5  C   LIG    1       -1.715   1.380   0.131  0.00  0.00    +0.126 C 
BRANCH   5  13
ATOM      6  C   LIG    1       -2.551   4.106  -3.292  0.00  0.00    +0.322 A 
ATOM      7  N   LIG    1       -3.052   5.350  -2.993  0.00  0.00    -0.178 NA
ATOM      8  C   LIG    1       -3.247   5.638  -1.675  0.00  0.00    +0.149 A 
ATOM      9  C   LIG    1       -2.943   4.691  -0.694  0.00  0.00    +0.126 A 
ATOM     10  N   LIG    1       -3.013   4.652   0.678  0.00  0.00    -0.302 N 
ATOM     11  H   LIG    1       -3.335   5.411   1.261  0.00  0.00    +0.171 HD
ATOM     12  C   LIG    1       -2.576   3.465   1.158  0.00  0.00    +0.329 A 
ATOM     13  N   LIG    1       -2.245   2.741   0.053  0.00  0.00    -0.277 N 
ATOM     14  O   LIG    1       -2.500   3.129   2.340  0.00  0.00    -0.246 OA
ATOM     15  C   LIG    1       -2.451   3.483  -1.091  0.00  0.00    +0.170 A 
ATOM     16  N   LIG    1       -2.232   3.138  -2.386  0.00  0.00    -0.175 NA
BRANCH   8  17
ATOM     17  N   LIG    1       -3.752   6.897  -1.358  0.00  0.00    -0.341 N 
ATOM     18  H   LIG    1       -3.955   7.547  -2.103  0.00  0.00    +0.144 HD
ATOM     19  H   LIG    1       -3.911   7.144  -0.392  0.00  0.00    +0.144 HD
ENDBRANCH   8  17
BRANCH   6  20
ATOM     20  O   LIG    1       -2.332   3.747  -4.609  0.00  0.00    -0.462 OA
BRANCH  20  21
ATOM     21  C   LIG    1       -2.658   4.665  -5.652  0.00  0.00    +0.232 C 
BRANCH  21  22
ATOM     22  C   LIG    1       -2.351   4.005  -7.004  0.00  0.00    +0.041 C 
BRANCH  22  24
ATOM     23  C   LIG    1       -2.395   4.243  -9.555  0.00  0.00    +0.004 C 
ATOM     24  C   LIG    1       -2.694   4.906  -8.204  0.00  0.00    -0.000 C 
ENDBRANCH  22  24
ENDBRANCH  21  22
ENDBRANCH  20  21
ENDBRANCH   6  20
ENDBRANCH   5  13
ENDBRANCH   4   5
ENDBRANCH   3   4
ENDBRANCH   1   3
BRANCH   1  25
ATOM     25  C   LIG    1        2.494  -1.391  -0.336  0.00  0.00    -0.043 C 
BRANCH  25  26
ATOM     26  C   LIG    1        2.402  -1.387  -1.855  0.00  0.00    -0.064 A 
ATOM     27  C   LIG    1        1.462  -2.189  -2.511  0.00  0.00    +0.006 A 
ATOM     28  C   LIG    1        1.392  -2.200  -3.907  0.00  0.00    -0.037 A 
ATOM     29  C   LIG    1        2.266  -1.401  -4.649  0.00  0.00    +0.004 A 
ATOM     30  C   LIG    1        3.211  -0.607  -4.001  0.00  0.00    +0.000 A 
ATOM     31  C   LIG    1        3.282  -0.602  -2.608  0.00  0.00    +0.002 A 
BRANCH  28  32
ATOM     32  C   LIG    1        0.355  -3.065  -4.617  0.00  0.00    +0.155 C 
BRANCH  32  33
ATOM     33  C   LIG    1        0.855  -4.499  -4.856  0.00  0.00    +0.311 C 
ATOM     34  O   LIG    1        1.970  -4.891  -4.498  0.00  0.00    -0.250 OA
BRANCH  33  35
ATOM     35  O   LIG    1       -0.072  -5.243  -5.493  0.00  0.00    -0.468 OA
ATOM     36  C   LIG    1        0.184  -6.605  -5.805  0.00  0.00    +0.280 C 
ENDBRANCH  33  35
ENDBRANCH  32  33
ENDBRANCH  28  32
ENDBRANCH  25  26
ENDBRANCH   1  25
BRANCH   1  37
ATOM     37  C   LIG    1        2.374   0.046   1.796  0.00  0.00    -0.080 C 
BRANCH  37  38
ATOM     38  C   LIG    1        3.793   0.643   1.833  0.00  0.00    -0.037 C 
BRANCH  38  39
ATOM     39  C   LIG    1        4.275   0.873   3.277  0.00  0.00    -0.080 C 
BRANCH  39  40
ATOM     40  N   LIG    1        5.617   1.645   3.317  0.00  0.00    +0.383 N 
ATOM     41  H   LIG    1        5.521   2.496   2.781  0.00  0.00    -0.082 HD
ATOM     42  C   LIG    1        6.789   0.838   2.708  0.00  0.00    -0.050 C 
ATOM     43  C   LIG    1        8.094   1.644   2.868  0.00  0.00    +0.141 C 
ATOM     44  O   LIG    1        8.312   1.989   4.232  0.00  0.00    -0.383 OA
ATOM     45  C   LIG    1        7.289   2.802   4.799  0.00  0.00    +0.141 C 
ATOM     46  C   LIG    1        5.935   2.066   4.771  0.00  0.00    -0.050 C 
ENDBRANCH  39  40
ENDBRANCH  38  39
ENDBRANCH  37  38
ENDBRANCH   1  37
TORSDOF 18
