REMARK  Name = DB14970
REMARK                            x       y       z     vdW  Elec       q    Type
REMARK                         _______ _______ _______ _____ _____    ______ ____
ROOT
ATOM      1  C   LIG    1       -2.145   1.145  -0.072  0.00  0.00    -0.010 A 
ATOM      2  C   LIG    1       -2.902  -0.016  -0.244  0.00  0.00    +0.036 A 
ATOM      3  C   LIG    1       -2.206  -1.224  -0.242  0.00  0.00    +0.067 A 
ATOM      4  N   LIG    1       -2.606  -2.534  -0.367  0.00  0.00    -0.342 N 
ATOM      5  H   LIG    1       -3.535  -2.907  -0.500  0.00  0.00    +0.167 HD
ATOM      6  C   LIG    1       -1.482  -3.315  -0.273  0.00  0.00    +0.111 A 
ATOM      7  N   LIG    1       -0.394  -2.610  -0.097  0.00  0.00    -0.232 NA
ATOM      8  C   LIG    1       -0.795  -1.297  -0.086  0.00  0.00    +0.096 A 
ATOM      9  C   LIG    1       -0.026  -0.116   0.070  0.00  0.00    +0.024 A 
ATOM     10  C   LIG    1       -0.756   1.088   0.074  0.00  0.00    +0.018 A 
ENDROOT
BRANCH   1  13
ATOM     11  C   LIG    1       -1.745   3.597   2.086  0.00  0.00    +0.070 C 
ATOM     12  C   LIG    1       -2.653   3.520   0.876  0.00  0.00    +0.088 A 
ATOM     13  C   LIG    1       -2.830   2.469  -0.039  0.00  0.00    +0.047 A 
ATOM     14  C   LIG    1       -3.794   2.949  -0.912  0.00  0.00    +0.142 A 
ATOM     15  C   LIG    1       -4.482   2.405  -2.142  0.00  0.00    +0.090 C 
ATOM     16  O   LIG    1       -4.153   4.199  -0.534  0.00  0.00    -0.359 OA
ATOM     17  N   LIG    1       -3.420   4.550   0.596  0.00  0.00    -0.083 NA
ENDBRANCH   1  13
BRANCH   6  18
ATOM     18  C   LIG    1       -1.529  -4.829  -0.373  0.00  0.00    +0.055 C 
ATOM     19  C   LIG    1       -0.480  -5.577  -1.160  0.00  0.00    +0.012 C 
ATOM     20  C   LIG    1       -0.518  -5.685   0.353  0.00  0.00    +0.012 C 
ENDBRANCH   6  18
BRANCH   9  21
ATOM     21  C   LIG    1        1.525  -0.073   0.227  0.00  0.00    +0.177 C 
BRANCH  21  22
ATOM     22  C   LIG    1        2.200  -1.238  -0.549  0.00  0.00    +0.083 A 
ATOM     23  C   LIG    1        2.184  -1.272  -1.954  0.00  0.00    +0.027 A 
ATOM     24  C   LIG    1        2.759  -2.357  -2.616  0.00  0.00    +0.003 A 
ATOM     25  C   LIG    1        3.336  -3.388  -1.875  0.00  0.00    +0.020 A 
ATOM     26  C   LIG    1        3.319  -3.295  -0.484  0.00  0.00    +0.111 A 
ATOM     27  N   LIG    1        2.766  -2.248   0.177  0.00  0.00    -0.256 NA
ENDBRANCH  21  22
BRANCH  21  28
ATOM     28  C   LIG    1        1.942  -0.036   1.727  0.00  0.00    +0.083 A 
ATOM     29  N   LIG    1        3.234   0.332   1.981  0.00  0.00    -0.256 NA
ATOM     30  C   LIG    1        3.653   0.403   3.270  0.00  0.00    +0.111 A 
ATOM     31  C   LIG    1        2.819   0.127   4.352  0.00  0.00    +0.020 A 
ATOM     32  C   LIG    1        1.498  -0.236   4.095  0.00  0.00    +0.003 A 
ATOM     33  C   LIG    1        1.048  -0.316   2.776  0.00  0.00    +0.027 A 
ENDBRANCH  21  28
BRANCH  21  34
ATOM     34  O   LIG    1        2.012   1.124  -0.381  0.00  0.00    -0.372 OA
ATOM     35  H   LIG    1        2.964   1.150  -0.263  0.00  0.00    +0.212 HD
ENDBRANCH  21  34
ENDBRANCH   9  21
TORSDOF 6
