REMARK  Name = DB14929
REMARK                            x       y       z     vdW  Elec       q    Type
REMARK                         _______ _______ _______ _____ _____    ______ ____
ROOT
ATOM      1  N   LIG    1        1.236   0.079   0.473  0.00  0.00    -0.284 N 
ATOM      2  H   LIG    1        1.628   0.949   0.142  0.00  0.00    +0.155 HD
ATOM      3  C   LIG    1        2.086  -0.761   1.100  0.00  0.00    +0.222 C 
ATOM      4  O   LIG    1        1.745  -1.766   1.728  0.00  0.00    -0.275 OA
ENDROOT
BRANCH   1   8
ATOM      5  C   LIG    1       -2.965  -0.071   0.063  0.00  0.00    +0.110 A 
ATOM      6  C   LIG    1       -2.256  -1.252   0.291  0.00  0.00    +0.031 A 
ATOM      7  C   LIG    1       -0.869  -1.225   0.429  0.00  0.00    +0.027 A 
ATOM      8  C   LIG    1       -0.166  -0.011   0.343  0.00  0.00    +0.052 A 
ATOM      9  C   LIG    1       -0.883   1.174   0.101  0.00  0.00    +0.064 A 
ATOM     10 CL   LIG    1       -0.089   2.708  -0.033  0.00  0.00    -0.082 Cl
ATOM     11  C   LIG    1       -2.273   1.138  -0.032  0.00  0.00    +0.050 A 
BRANCH   5  12
ATOM     12  S   LIG    1       -4.757  -0.126  -0.117  0.00  0.00    +0.074 S 
ATOM     13  O   LIG    1       -5.201  -0.905   1.045  0.00  0.00    -0.150 OA
ATOM     14  O   LIG    1       -5.201   1.274  -0.175  0.00  0.00    -0.150 OA
BRANCH  12  16
ATOM     15  C   LIG    1       -4.674  -0.380  -2.641  0.00  0.00    +0.232 C 
ATOM     16  N   LIG    1       -4.886  -0.931  -1.468  0.00  0.00    -0.185 N 
ATOM     17  H   LIG    1       -5.135  -1.883  -1.430  0.00  0.00    +0.177 HD
ATOM     18  O   LIG    1       -4.324   0.786  -2.847  0.00  0.00    -0.274 OA
BRANCH  15  20
ATOM     19  C   LIG    1       -4.673  -0.634  -5.231  0.00  0.00    +0.013 C 
ATOM     20  C   LIG    1       -4.881  -1.302  -3.857  0.00  0.00    +0.094 C 
ENDBRANCH  15  20
ENDBRANCH  12  16
ENDBRANCH   5  12
ENDBRANCH   1   8
BRANCH   3  21
ATOM     21  C   LIG    1        3.567  -0.342   1.058  0.00  0.00    +0.134 C 
BRANCH  21  22
ATOM     22  C   LIG    1        4.548  -1.500   1.258  0.00  0.00    +0.000 A 
ATOM     23  C   LIG    1        4.672  -2.519   0.301  0.00  0.00    +0.170 A 
ATOM     24  F   LIG    1        3.923  -2.489  -0.827  0.00  0.00    -0.201 F 
ATOM     25  C   LIG    1        5.572  -3.571   0.502  0.00  0.00    +0.178 A 
ATOM     26  C   LIG    1        6.350  -3.609   1.665  0.00  0.00    +0.063 A 
ATOM     27 BR   LIG    1        7.573  -5.038   1.971  0.00  0.00    -0.046 Br
ATOM     28  C   LIG    1        6.239  -2.591   2.610  0.00  0.00    +0.019 A 
ATOM     29  C   LIG    1        5.346  -1.540   2.406  0.00  0.00    +0.008 A 
BRANCH  25  30
ATOM     30  O   LIG    1        5.672  -4.572  -0.437  0.00  0.00    -0.452 OA
BRANCH  30  31
ATOM     31  C   LIG    1        6.605  -4.504  -1.454  0.00  0.00    +0.131 A 
ATOM     32  C   LIG    1        6.582  -5.527  -2.405  0.00  0.00    +0.066 A 
ATOM     33  C   LIG    1        7.497  -5.542  -3.458  0.00  0.00    +0.046 A 
ATOM     34 CL   LIG    1        7.450  -6.816  -4.622  0.00  0.00    -0.083 Cl
ATOM     35  C   LIG    1        8.449  -4.529  -3.569  0.00  0.00    +0.039 A 
ATOM     36  C   LIG    1        8.487  -3.499  -2.627  0.00  0.00    +0.057 A 
ATOM     37  C   LIG    1        7.567  -3.486  -1.574  0.00  0.00    +0.065 A 
BRANCH  36  38
ATOM     38  C   LIG    1        9.484  -2.444  -2.738  0.00  0.00    +0.099 C 
ATOM     39  N   LIG    1       10.277  -1.606  -2.826  0.00  0.00    -0.191 NA
ENDBRANCH  36  38
ENDBRANCH  30  31
ENDBRANCH  25  30
ENDBRANCH  21  22
ENDBRANCH   3  21
TORSDOF 9
