REMARK  Name = DB14814
REMARK                            x       y       z     vdW  Elec       q    Type
REMARK                         _______ _______ _______ _____ _____    ______ ____
ROOT
ATOM      1  C   LIG    1       -7.235   1.879  -0.935  0.00  0.00    +0.118 C 
ATOM      2  C   LIG    1       -6.039   1.206  -1.652  0.00  0.00    +0.032 C 
ATOM      3  C   LIG    1       -4.717   1.934  -1.308  0.00  0.00    +0.017 C 
ATOM      4  C   LIG    1       -4.432   1.999   0.235  0.00  0.00    +0.048 C 
ATOM      5  C   LIG    1       -3.018   2.638   0.543  0.00  0.00    +0.274 C 
ATOM      6  N   LIG    1       -2.916   3.176   1.883  0.00  0.00    -0.045 NA
ATOM      7  C   LIG    1       -2.591   4.388   1.756  0.00  0.00    +0.328 C 
ATOM      8  C   LIG    1       -2.412   4.734   0.317  0.00  0.00    +0.128 C 
ATOM      9  C   LIG    1       -2.017   6.097  -0.216  0.00  0.00    +0.074 C 
ATOM     10  N   LIG    1       -2.638   3.697  -0.371  0.00  0.00    -0.224 NA
ATOM     11  C   LIG    1       -2.102   1.417   0.426  0.00  0.00    +0.031 A 
ATOM     12  C   LIG    1       -0.724   1.345   0.200  0.00  0.00    +0.019 A 
ATOM     13  C   LIG    1       -0.049   0.115   0.231  0.00  0.00    -0.016 A 
ATOM     14  C   LIG    1       -0.794  -1.042   0.507  0.00  0.00    +0.009 A 
ATOM     15  C   LIG    1       -2.171  -0.980   0.724  0.00  0.00    +0.005 A 
ATOM     16  C   LIG    1       -2.829   0.245   0.633  0.00  0.00    -0.037 A 
ATOM     17  C   LIG    1       -4.283   0.584   0.857  0.00  0.00    +0.049 C 
ATOM     18  C   LIG    1       -5.636   2.803   0.817  0.00  0.00    +0.017 C 
ATOM     19  C   LIG    1       -6.979   2.073   0.586  0.00  0.00    +0.032 C 
ENDROOT
BRANCH  13  20
ATOM     20  C   LIG    1        1.423   0.045  -0.004  0.00  0.00    +0.001 A 
ATOM     21  C   LIG    1        2.230  -0.894   0.657  0.00  0.00    +0.119 A 
ATOM     22  N   LIG    1        3.572  -0.993   0.482  0.00  0.00    -0.261 NA
ATOM     23  C   LIG    1        4.163  -0.134  -0.385  0.00  0.00    +0.127 A 
ATOM     24  C   LIG    1        3.450   0.836  -1.093  0.00  0.00    +0.044 A 
ATOM     25  C   LIG    1        2.068   0.919  -0.895  0.00  0.00    +0.028 A 
BRANCH  24  26
ATOM     26  C   LIG    1        4.128   1.736  -2.013  0.00  0.00    -0.065 C 
ATOM     27  C   LIG    1        4.686   2.499  -2.786  0.00  0.00    -0.100 C 
ATOM     28  C   LIG    1        5.346   3.420  -3.723  0.00  0.00    +0.106 C 
ENDBRANCH  24  26
ENDBRANCH  13  20
BRANCH   7  29
ATOM     29  N   LIG    1       -2.398   5.318   2.751  0.00  0.00    -0.245 N 
ATOM     30  H   LIG    1       -2.130   6.266   2.527  0.00  0.00    +0.288 HD
ATOM     31  H   LIG    1       -2.523   5.062   3.720  0.00  0.00    +0.288 HD
ENDBRANCH   7  29
BRANCH   1  33
ATOM     32  C   LIG    1       -9.645   1.762  -0.888  0.00  0.00    +0.194 C 
ATOM     33  O   LIG    1       -8.415   1.129  -1.217  0.00  0.00    -0.380 OA
ENDBRANCH   1  33
TORSDOF 4
