REMARK  Name = DB14793
REMARK                            x       y       z     vdW  Elec       q    Type
REMARK                         _______ _______ _______ _____ _____    ______ ____
ROOT
ATOM      1  C   LIG    1       -0.727   0.967   0.022  0.00  0.00    +0.329 C 
ATOM      2  N   LIG    1        0.121  -0.060   0.365  0.00  0.00    -0.125 N 
ATOM      3  C   LIG    1        1.490  -0.102   0.252  0.00  0.00    +0.398 C 
ATOM      4  N   LIG    1        2.214   0.988   0.644  0.00  0.00    -0.263 N 
ATOM      5  C   LIG    1        3.589   1.140   0.127  0.00  0.00    +0.127 C 
ATOM      6  C   LIG    1        3.933   2.643   0.061  0.00  0.00    +0.103 C 
ATOM      7  N   LIG    1        3.731   3.304   1.355  0.00  0.00    -0.299 NA
ATOM      8  C   LIG    1        2.332   3.188   1.769  0.00  0.00    +0.103 C 
ATOM      9  C   LIG    1        1.863   1.718   1.885  0.00  0.00    +0.127 C 
ATOM     10  O   LIG    1        2.047  -1.109  -0.196  0.00  0.00    -0.223 OA
ATOM     11  C   LIG    1       -0.682  -1.237   0.784  0.00  0.00    +0.185 C 
ATOM     12  C   LIG    1       -0.068  -1.858   2.089  0.00  0.00    +0.070 C 
ATOM     13  C   LIG    1       -2.051  -0.504   1.067  0.00  0.00    +0.220 C 
ATOM     14  C   LIG    1       -2.286  -0.071   2.552  0.00  0.00    +0.076 C 
ATOM     15  N   LIG    1       -1.934   0.754   0.363  0.00  0.00    -0.066 NA
ENDROOT
BRANCH  11  16
ATOM     16  C   LIG    1       -0.761  -2.316  -0.354  0.00  0.00    +0.003 A 
ATOM     17  C   LIG    1       -0.769  -1.938  -1.709  0.00  0.00    +0.009 A 
ATOM     18  C   LIG    1       -0.852  -2.889  -2.721  0.00  0.00    +0.020 A 
ATOM     19  C   LIG    1       -0.928  -4.239  -2.395  0.00  0.00    +0.041 A 
ATOM     20 CL   LIG    1       -1.036  -5.420  -3.649  0.00  0.00    -0.084 Cl
ATOM     21  C   LIG    1       -0.921  -4.641  -1.063  0.00  0.00    +0.020 A 
ATOM     22  C   LIG    1       -0.839  -3.687  -0.053  0.00  0.00    +0.009 A 
ENDBRANCH  11  16
BRANCH  13  23
ATOM     23  C   LIG    1       -3.305  -1.293   0.588  0.00  0.00    +0.008 A 
ATOM     24  C   LIG    1       -4.062  -0.909  -0.534  0.00  0.00    +0.010 A 
ATOM     25  C   LIG    1       -5.158  -1.662  -0.943  0.00  0.00    +0.020 A 
ATOM     26  C   LIG    1       -5.512  -2.810  -0.239  0.00  0.00    +0.041 A 
ATOM     27 CL   LIG    1       -6.867  -3.748  -0.751  0.00  0.00    -0.084 Cl
ATOM     28  C   LIG    1       -4.776  -3.208   0.873  0.00  0.00    +0.020 A 
ATOM     29  C   LIG    1       -3.680  -2.453   1.281  0.00  0.00    +0.010 A 
ENDBRANCH  13  23
BRANCH   1  35
ATOM     30  C   LIG    1       -0.618   3.476  -0.191  0.00  0.00    +0.136 A 
ATOM     31  C   LIG    1       -0.174   4.607  -0.898  0.00  0.00    +0.050 A 
ATOM     32  C   LIG    1        0.571   4.496  -2.083  0.00  0.00    -0.038 A 
ATOM     33  C   LIG    1        0.844   3.211  -2.568  0.00  0.00    +0.005 A 
ATOM     34  C   LIG    1        0.406   2.079  -1.889  0.00  0.00    +0.020 A 
ATOM     35  C   LIG    1       -0.310   2.197  -0.693  0.00  0.00    +0.107 A 
BRANCH  32  36
ATOM     36  C   LIG    1        1.104   5.730  -2.856  0.00  0.00    -0.013 C 
ATOM     37  C   LIG    1        2.650   5.669  -2.928  0.00  0.00    +0.015 C 
ATOM     38  C   LIG    1        0.523   5.738  -4.292  0.00  0.00    +0.015 C 
ATOM     39  C   LIG    1        0.725   7.082  -2.194  0.00  0.00    +0.015 C 
ENDBRANCH  32  36
BRANCH  30  40
ATOM     40  O   LIG    1       -1.316   3.559   1.005  0.00  0.00    -0.491 OA
BRANCH  40  42
ATOM     41  C   LIG    1       -2.308   4.591   2.924  0.00  0.00    +0.048 C 
ATOM     42  C   LIG    1       -1.584   4.825   1.596  0.00  0.00    +0.226 C 
ENDBRANCH  40  42
ENDBRANCH  30  40
ENDBRANCH   1  35
BRANCH   7  43
ATOM     43  C   LIG    1        4.110   4.721   1.303  0.00  0.00    +0.086 C 
BRANCH  43  44
ATOM     44  C   LIG    1        5.636   4.928   1.203  0.00  0.00    +0.038 C 
BRANCH  44  45
ATOM     45  C   LIG    1        6.047   6.393   1.434  0.00  0.00    +0.167 C 
BRANCH  45  46
ATOM     46  S   LIG    1        7.930   6.587   1.366  0.00  0.00    -0.034 S 
ATOM     47  O   LIG    1        8.532   5.563   2.226  0.00  0.00    -0.175 OA
ATOM     48  O   LIG    1        8.240   8.002   1.594  0.00  0.00    -0.175 OA
ATOM     49  C   LIG    1        8.379   6.185  -0.422  0.00  0.00    +0.194 C 
ENDBRANCH  45  46
ENDBRANCH  44  45
ENDBRANCH  43  44
ENDBRANCH   7  43
TORSDOF 10
