REMARK  Name = DB14151
REMARK                            x       y       z     vdW  Elec       q    Type
REMARK                         _______ _______ _______ _____ _____    ______ ____
ROOT
ATOM      1  P   LIG    1        0.199  -0.028  -0.073  0.00  0.00    -0.153 P 
ATOM      2  H   LIG    1       -0.776  -0.007   0.963  0.00  0.00    +0.051 HD
ATOM      3  H   LIG    1        0.126   1.378  -0.283  0.00  0.00    +0.051 HD
ATOM      4  H   LIG    1        1.288   0.081   0.837  0.00  0.00    +0.051 HD
ENDROOT
TORSDOF 0
