REMARK  Name = DB14987
REMARK                            x       y       z     vdW  Elec       q    Type
REMARK                         _______ _______ _______ _____ _____    ______ ____
ROOT
ATOM      1  C   LIG    1       -2.431  -0.338   0.112  0.00  0.00    +0.097 A 
ATOM      2  N   LIG    1       -1.234  -0.873  -0.079  0.00  0.00    -0.212 NA
ATOM      3  C   LIG    1       -0.379   0.110   0.101  0.00  0.00    +0.227 A 
ATOM      4  O   LIG    1       -0.964   1.290   0.434  0.00  0.00    -0.443 OA
ATOM      5  C   LIG    1       -2.284   0.998   0.451  0.00  0.00    +0.222 A 
ENDROOT
BRANCH   3   6
ATOM      6  C   LIG    1        1.111   0.050  -0.012  0.00  0.00    +0.041 A 
ATOM      7  C   LIG    1        1.885   1.209   0.093  0.00  0.00    +0.062 A 
ATOM      8  C   LIG    1        3.287   1.163  -0.016  0.00  0.00    +0.163 A 
ATOM      9  C   LIG    1        3.918  -0.070  -0.237  0.00  0.00    +0.168 A 
ATOM     10  C   LIG    1        3.138  -1.234  -0.336  0.00  0.00    +0.050 A 
ATOM     11  C   LIG    1        1.752  -1.172  -0.228  0.00  0.00    +0.017 A 
BRANCH   8  12
ATOM     12  O   LIG    1        4.109   2.275   0.069  0.00  0.00    -0.486 OA
BRANCH  12  13
ATOM     13  C   LIG    1        3.579   3.578   0.327  0.00  0.00    +0.167 C 
ATOM     14  C   LIG    1        3.231   3.740   1.819  0.00  0.00    +0.051 C 
ATOM     15  C   LIG    1        4.646   4.588  -0.119  0.00  0.00    +0.051 C 
ENDBRANCH  12  13
ENDBRANCH   8  12
BRANCH   9  16
ATOM     16  O   LIG    1        5.299  -0.063  -0.333  0.00  0.00    -0.431 OA
BRANCH  16  17
ATOM     17  C   LIG    1        5.990  -1.246  -0.727  0.00  0.00    +0.541 C 
ATOM     18  F   LIG    1        7.220  -0.914  -1.116  0.00  0.00    -0.166 F 
ATOM     19  F   LIG    1        6.078  -2.109   0.286  0.00  0.00    -0.166 F 
ENDBRANCH  16  17
ENDBRANCH   9  16
ENDBRANCH   3   6
BRANCH   1  20
ATOM     20  C   LIG    1       -3.692  -1.171  -0.010  0.00  0.00    +0.163 C 
BRANCH  20  22
ATOM     21  C   LIG    1       -3.556  -2.501  -2.124  0.00  0.00    +0.248 C 
ATOM     22  N   LIG    1       -4.018  -1.456  -1.408  0.00  0.00    -0.306 N 
ATOM     23  H   LIG    1       -4.673  -0.828  -1.849  0.00  0.00    +0.149 HD
ATOM     24  O   LIG    1       -2.808  -3.361  -1.656  0.00  0.00    -0.270 OA
BRANCH  21  26
ATOM     25  C   LIG    1       -4.281  -3.787  -4.205  0.00  0.00    +0.133 A 
ATOM     26  C   LIG    1       -4.003  -2.555  -3.570  0.00  0.00    +0.078 A 
ATOM     27  C   LIG    1       -4.115  -1.363  -4.305  0.00  0.00    +0.017 A 
ATOM     28  C   LIG    1       -4.501  -1.378  -5.642  0.00  0.00    +0.001 A 
ATOM     29  C   LIG    1       -4.779  -2.587  -6.268  0.00  0.00    +0.004 A 
ATOM     30  C   LIG    1       -4.670  -3.780  -5.558  0.00  0.00    +0.046 A 
BRANCH  25  31
ATOM     31  O   LIG    1       -4.178  -4.954  -3.465  0.00  0.00    -0.491 OA
BRANCH  31  33
ATOM     32  C   LIG    1       -4.170  -7.317  -3.042  0.00  0.00    +0.048 C 
ATOM     33  C   LIG    1       -4.413  -6.217  -4.080  0.00  0.00    +0.226 C 
ENDBRANCH  31  33
ENDBRANCH  25  31
ENDBRANCH  21  26
ENDBRANCH  20  22
ENDBRANCH   1  20
TORSDOF 10
