REMARK  Name = DB14790
REMARK                            x       y       z     vdW  Elec       q    Type
REMARK                         _______ _______ _______ _____ _____    ______ ____
ROOT
ATOM      1  C   LIG    1       -2.156   1.193  -0.139  0.00  0.00    +0.144 A 
ATOM      2  C   LIG    1       -0.759   1.244  -0.071  0.00  0.00    +0.036 A 
ATOM      3  C   LIG    1       -0.045   0.046   0.014  0.00  0.00    -0.039 A 
ATOM      4  C   LIG    1       -0.744  -1.165   0.015  0.00  0.00    +0.032 A 
ATOM      5  C   LIG    1       -2.145  -1.156  -0.044  0.00  0.00    +0.072 A 
ATOM      6  N   LIG    1       -2.837   0.015  -0.129  0.00  0.00    -0.243 NA
ENDROOT
BRANCH   5   7
ATOM      7  C   LIG    1       -2.956  -2.416  -0.039  0.00  0.00    +0.002 A 
ATOM      8  C   LIG    1       -4.240  -2.466  -0.610  0.00  0.00    +0.010 A 
ATOM      9  C   LIG    1       -4.991  -3.641  -0.602  0.00  0.00    +0.002 A 
ATOM     10  C   LIG    1       -4.473  -4.795  -0.019  0.00  0.00    +0.020 A 
ATOM     11  C   LIG    1       -3.205  -4.770   0.557  0.00  0.00    +0.042 A 
ATOM     12 CL   LIG    1       -2.560  -6.195   1.286  0.00  0.00    -0.084 Cl
ATOM     13  C   LIG    1       -2.457  -3.591   0.547  0.00  0.00    +0.030 A 
ENDBRANCH   5   7
BRANCH   1  14
ATOM     14  C   LIG    1       -3.011   2.454  -0.230  0.00  0.00    +0.434 C 
ATOM     15  F   LIG    1       -3.821   2.529   0.827  0.00  0.00    -0.164 F 
ATOM     16  F   LIG    1       -3.755   2.420  -1.337  0.00  0.00    -0.164 F 
ATOM     17  F   LIG    1       -2.270   3.564  -0.264  0.00  0.00    -0.164 F 
ENDBRANCH   1  14
BRANCH   3  18
ATOM     18  C   LIG    1        1.475   0.056   0.069  0.00  0.00    +0.070 C 
BRANCH  18  19
ATOM     19  C   LIG    1        2.016   0.039   1.491  0.00  0.00    -0.043 A 
ATOM     20  C   LIG    1        2.330   1.239   2.133  0.00  0.00    +0.004 A 
ATOM     21  C   LIG    1        2.830   1.222   3.433  0.00  0.00    +0.004 A 
ATOM     22  C   LIG    1        3.022   0.005   4.092  0.00  0.00    -0.037 A 
ATOM     23  C   LIG    1        2.722  -1.195   3.443  0.00  0.00    +0.004 A 
ATOM     24  C   LIG    1        2.223  -1.179   2.144  0.00  0.00    +0.004 A 
BRANCH  22  25
ATOM     25  C   LIG    1        3.573  -0.015   5.520  0.00  0.00    +0.155 C 
BRANCH  25  26
ATOM     26  C   LIG    1        2.466  -0.101   6.598  0.00  0.00    +0.309 C 
ATOM     27  O   LIG    1        2.693  -0.843   7.580  0.00  0.00    -0.251 OA
BRANCH  26  28
ATOM     28  O   LIG    1        1.430   0.592   6.464  0.00  0.00    -0.480 OA
ATOM     29  H   LIG    1        0.751   0.549   7.109  0.00  0.00    +0.295 HD
ENDBRANCH  26  28
ENDBRANCH  25  26
ENDBRANCH  22  25
ENDBRANCH  18  19
ENDBRANCH   3  18
TORSDOF 7
