REMARK  Name = DB14723
REMARK                            x       y       z     vdW  Elec       q    Type
REMARK                         _______ _______ _______ _____ _____    ______ ____
ROOT
ATOM      1  C   LIG    1        1.526   0.114   0.076  0.00  0.00    +0.099 A 
ATOM      2  C   LIG    1        2.203  -0.893  -0.615  0.00  0.00    +0.160 A 
ATOM      3  N   LIG    1        3.411  -0.553  -1.017  0.00  0.00    -0.171 NA
ATOM      4  N   LIG    1        3.582   0.710  -0.567  0.00  0.00    -0.220 N 
ATOM      5  C   LIG    1        4.704   1.476  -0.733  0.00  0.00    +0.118 A 
ATOM      6  C   LIG    1        4.708   2.752  -0.177  0.00  0.00    +0.063 A 
ATOM      7  C   LIG    1        3.575   3.192   0.526  0.00  0.00    +0.126 A 
ATOM      8  N   LIG    1        2.467   2.409   0.678  0.00  0.00    -0.211 NA
ATOM      9  C   LIG    1        2.462   1.186   0.131  0.00  0.00    +0.179 A 
ENDROOT
BRANCH   1  14
ATOM     10  C   LIG    1       -3.642   1.156   2.708  0.00  0.00    +0.052 C 
ATOM     11  C   LIG    1       -2.785   1.806   1.622  0.00  0.00    +0.112 C 
ATOM     12  N   LIG    1       -1.813   0.759   1.279  0.00  0.00    -0.283 N 
ATOM     13  C   LIG    1       -0.657   1.045   0.627  0.00  0.00    +0.307 C 
ATOM     14  N   LIG    1        0.251   0.040   0.614  0.00  0.00    -0.265 N 
ATOM     15  H   LIG    1       -0.044  -0.863   0.956  0.00  0.00    +0.157 HD
ATOM     16  O   LIG    1       -0.456   2.148   0.109  0.00  0.00    -0.252 OA
ATOM     17  C   LIG    1       -2.165  -0.545   1.864  0.00  0.00    +0.140 C 
ATOM     18  C   LIG    1       -3.565  -0.339   2.441  0.00  0.00    +0.133 C 
BRANCH  18  19
ATOM     19  O   LIG    1       -3.875  -1.126   3.571  0.00  0.00    -0.390 OA
ATOM     20  H   LIG    1       -3.614  -2.032   3.392  0.00  0.00    +0.210 HD
ENDBRANCH  18  19
ENDBRANCH   1  14
BRANCH   7  21
ATOM     21  N   LIG    1        3.539   4.459   1.138  0.00  0.00    -0.308 N 
ATOM     22  C   LIG    1        2.407   5.080   1.852  0.00  0.00    +0.108 C 
ATOM     23  C   LIG    1        2.730   6.568   2.075  0.00  0.00    +0.029 C 
ATOM     24  C   LIG    1        4.233   6.662   1.894  0.00  0.00    +0.021 C 
ATOM     25  C   LIG    1        4.539   5.513   0.942  0.00  0.00    +0.107 C 
BRANCH  22  26
ATOM     26  C   LIG    1        2.018   4.284   3.110  0.00  0.00    +0.011 A 
ATOM     27  C   LIG    1        0.789   3.611   3.132  0.00  0.00    +0.046 A 
ATOM     28  C   LIG    1        0.405   2.859   4.241  0.00  0.00    +0.124 A 
ATOM     29  F   LIG    1       -0.781   2.211   4.242  0.00  0.00    -0.205 F 
ATOM     30  C   LIG    1        1.245   2.774   5.348  0.00  0.00    +0.041 A 
ATOM     31  C   LIG    1        2.471   3.438   5.342  0.00  0.00    +0.041 A 
ATOM     32  C   LIG    1        2.860   4.187   4.231  0.00  0.00    +0.129 A 
ATOM     33  F   LIG    1        4.067   4.794   4.251  0.00  0.00    -0.205 F 
ENDBRANCH  22  26
ENDBRANCH   7  21
TORSDOF 4
