REMARK  Name = DB14823
REMARK                            x       y       z     vdW  Elec       q    Type
REMARK                         _______ _______ _______ _____ _____    ______ ____
ROOT
ATOM      1  C   LIG    1       -4.354   3.484  -1.155  0.00  0.00    +0.105 C 
ATOM      2  N   LIG    1       -3.364   2.420  -1.286  0.00  0.00    -0.294 NA
ATOM      3  C   LIG    1       -2.081   2.902  -1.809  0.00  0.00    +0.121 C 
ATOM      4  C   LIG    1       -1.019   3.357  -0.809  0.00  0.00    -0.008 A 
ATOM      5  C   LIG    1       -0.605   4.693  -0.763  0.00  0.00    +0.027 A 
ATOM      6  C   LIG    1        0.341   5.119   0.169  0.00  0.00    +0.041 A 
ATOM      7 CL   LIG    1        0.835   6.772   0.204  0.00  0.00    -0.084 Cl
ATOM      8  C   LIG    1        0.880   4.211   1.076  0.00  0.00    +0.022 A 
ATOM      9  C   LIG    1        0.477   2.878   1.048  0.00  0.00    +0.028 A 
ATOM     10  C   LIG    1       -0.461   2.437   0.105  0.00  0.00    +0.054 A 
ATOM     11  N   LIG    1       -0.863   1.077   0.098  0.00  0.00    -0.281 N 
ATOM     12  C   LIG    1       -0.107  -0.082   0.162  0.00  0.00    +0.141 A 
ATOM     13  N   LIG    1       -0.879  -1.142   0.170  0.00  0.00    -0.134 NA
ATOM     14  N   LIG    1       -2.193  -0.702   0.084  0.00  0.00    -0.133 NA
ATOM     15  C   LIG    1       -2.160   0.604   0.009  0.00  0.00    +0.152 A 
ATOM     16  C   LIG    1       -3.354   1.534  -0.115  0.00  0.00    +0.161 C 
ENDROOT
BRANCH  12  17
ATOM     17  C   LIG    1        1.416  -0.152   0.182  0.00  0.00    +0.058 C 
ATOM     18  C   LIG    1        2.001  -0.955  -1.010  0.00  0.00    +0.015 C 
ATOM     19  C   LIG    1        3.542  -1.030  -0.966  0.00  0.00    +0.045 C 
ATOM     20  C   LIG    1        4.029  -1.609   0.375  0.00  0.00    +0.175 C 
ATOM     21  C   LIG    1        3.525  -0.725   1.537  0.00  0.00    +0.045 C 
ATOM     22  C   LIG    1        1.983  -0.642   1.541  0.00  0.00    +0.015 C 
BRANCH  20  23
ATOM     23  O   LIG    1        5.458  -1.689   0.347  0.00  0.00    -0.473 OA
BRANCH  23  24
ATOM     24  C   LIG    1        6.145  -2.527   1.210  0.00  0.00    +0.215 A 
ATOM     25  C   LIG    1        7.541  -2.532   1.154  0.00  0.00    +0.067 A 
ATOM     26  C   LIG    1        8.249  -3.375   2.013  0.00  0.00    +0.007 A 
ATOM     27  C   LIG    1        7.551  -4.191   2.905  0.00  0.00    +0.020 A 
ATOM     28  C   LIG    1        6.157  -4.134   2.906  0.00  0.00    +0.114 A 
ATOM     29  N   LIG    1        5.452  -3.321   2.078  0.00  0.00    -0.221 NA
ENDBRANCH  23  24
ENDBRANCH  20  23
ENDBRANCH  12  17
TORSDOF 3
