REMARK  Name = DB14879
REMARK                            x       y       z     vdW  Elec       q    Type
REMARK                         _______ _______ _______ _____ _____    ______ ____
ROOT
ATOM      1  CA  LIG    1       -1.760   1.866   1.814  0.00  0.00    +0.120 C 
ATOM      2  N   LIG    1       -1.287   0.907   0.954  0.00  0.00    -0.249 N 
ATOM      3  C   LIG    1       -0.935   0.793  -0.394  0.00  0.00    +0.244 C 
ATOM      4  O   LIG    1       -1.127   1.490  -1.390  0.00  0.00    -0.273 OA
ATOM      5  CA  LIG    1       -0.132  -0.507  -0.094  0.00  0.00    +0.191 C 
ATOM      6  C   LIG    1       -0.783  -0.433   1.320  0.00  0.00    +0.169 C 
ATOM      7  S   LIG    1        0.187  -0.302   2.857  0.00  0.00    -0.131 S 
ATOM      8  C   LIG    1       -1.190   0.427   3.809  0.00  0.00    +0.102 C 
ATOM      9  C   LIG    1       -1.697   1.736   3.176  0.00  0.00    -0.047 C 
ENDROOT
BRANCH   5  10
ATOM     10  N   LIG    1        1.311  -0.275  -0.184  0.00  0.00    -0.296 N 
ATOM     11  H   LIG    1        1.597   0.652  -0.462  0.00  0.00    +0.150 HD
ATOM     12  C   LIG    1        2.264  -1.186   0.087  0.00  0.00    +0.268 C 
ATOM     13  O   LIG    1        2.027  -2.352   0.410  0.00  0.00    -0.268 OA
BRANCH  12  14
ATOM     14  C   LIG    1        3.636  -0.658  -0.045  0.00  0.00    +0.190 C 
ATOM     15  N   LIG    1        4.478  -1.190  -0.862  0.00  0.00    -0.077 NA
BRANCH  14  16
ATOM     16  C   LIG    1        4.064   0.507   0.772  0.00  0.00    +0.107 A 
ATOM     17  C   LIG    1        5.265   1.204   0.582  0.00  0.00    +0.078 A 
ATOM     18  S   LIG    1        5.390   2.489   1.748  0.00  0.00    -0.060 S 
ATOM     19  C   LIG    1        3.863   1.980   2.382  0.00  0.00    +0.156 A 
ATOM     20  N   LIG    1        3.324   0.954   1.781  0.00  0.00    -0.223 NA
BRANCH  19  21
ATOM     21  N   LIG    1        3.303   2.638   3.438  0.00  0.00    -0.338 N 
ATOM     22  H   LIG    1        3.760   3.426   3.874  0.00  0.00    +0.144 HD
ATOM     23  H   LIG    1        2.413   2.354   3.820  0.00  0.00    +0.144 HD
ENDBRANCH  19  21
ENDBRANCH  14  16
BRANCH  15  24
ATOM     24  O   LIG    1        3.985  -2.280  -1.639  0.00  0.00    -0.376 OA
BRANCH  24  25
ATOM     25  C   LIG    1        4.954  -2.771  -2.587  0.00  0.00    +0.228 C 
ATOM     26  C   LIG    1        4.204  -3.897  -3.332  0.00  0.00    +0.070 C 
ATOM     27  C   LIG    1        6.166  -3.384  -1.837  0.00  0.00    +0.070 C 
BRANCH  25  28
ATOM     28  C   LIG    1        5.377  -1.683  -3.618  0.00  0.00    +0.351 C 
ATOM     29  O   LIG    1        6.496  -1.631  -4.126  0.00  0.00    -0.246 OA
BRANCH  28  30
ATOM     30  O   LIG    1        4.365  -0.811  -3.902  0.00  0.00    -0.478 OA
ATOM     31  H   LIG    1        4.628  -0.141  -4.538  0.00  0.00    +0.295 HD
ENDBRANCH  28  30
ENDBRANCH  25  28
ENDBRANCH  24  25
ENDBRANCH  15  24
ENDBRANCH  12  14
ENDBRANCH   5  10
BRANCH   1  32
ATOM     32  C   LIG    1       -2.403   3.130   1.158  0.00  0.00    +0.351 C 
ATOM     33  O   LIG    1       -1.592   4.005   0.776  0.00  0.00    -0.244 OA
BRANCH  32  34
ATOM     34  OXT LIG    1       -3.652   3.099   1.080  0.00  0.00    -0.476 OA
ATOM     35  HXT LIG    1       -4.124   2.363   1.417  0.00  0.00    +0.295 HD
ENDBRANCH  32  34
ENDBRANCH   1  32
BRANCH   9  36
ATOM     36  C   LIG    1       -2.238   2.766   4.185  0.00  0.00    -0.041 C 
BRANCH  36  37
ATOM     37  N   LIG    1       -1.232   3.759   4.859  0.00  0.00    +0.384 N 
ATOM     38  C   LIG    1       -0.031   3.086   5.572  0.00  0.00    -0.075 C 
ATOM     39  C   LIG    1        0.989   4.210   5.768  0.00  0.00    -0.020 C 
ATOM     40  C   LIG    1        0.797   5.130   4.561  0.00  0.00    -0.020 C 
ATOM     41  C   LIG    1       -0.449   4.609   3.824  0.00  0.00    -0.075 C 
BRANCH  37  42
ATOM     42  C   LIG    1       -2.039   4.721   5.798  0.00  0.00    -0.056 C 
BRANCH  42  43
ATOM     43  C   LIG    1       -2.577   4.057   7.093  0.00  0.00    +0.086 C 
BRANCH  43  44
ATOM     44  N   LIG    1       -1.838   4.476   8.286  0.00  0.00    -0.313 N 
ATOM     45  H   LIG    1       -1.909   5.454   8.527  0.00  0.00    +0.149 HD
ATOM     46  C   LIG    1       -1.168   3.669   9.130  0.00  0.00    +0.246 C 
ATOM     47  O   LIG    1       -1.097   2.447   8.997  0.00  0.00    -0.270 OA
BRANCH  46  48
ATOM     48  C   LIG    1       -0.475   4.367  10.277  0.00  0.00    +0.059 A 
ATOM     49  C   LIG    1       -0.580   3.906  11.609  0.00  0.00    +0.098 A 
ATOM     50 CL   LIG    1       -1.535   2.509  12.018  0.00  0.00    -0.079 Cl
ATOM     51  C   LIG    1        0.079   4.594  12.643  0.00  0.00    +0.178 A 
ATOM     52  C   LIG    1        0.834   5.739  12.356  0.00  0.00    +0.160 A 
ATOM     53  C   LIG    1        0.926   6.199  11.046  0.00  0.00    +0.050 A 
ATOM     54  C   LIG    1        0.277   5.523  10.018  0.00  0.00    +0.018 A 
BRANCH  51  55
ATOM     55  O   LIG    1       -0.019   4.147  13.940  0.00  0.00    -0.502 OA
ATOM     56  H   LIG    1        0.458   4.690  14.570  0.00  0.00    +0.292 HD
ENDBRANCH  51  55
BRANCH  52  57
ATOM     57  O   LIG    1        1.489   6.432  13.344  0.00  0.00    -0.503 OA
ATOM     58  H   LIG    1        1.379   6.053  14.219  0.00  0.00    +0.292 HD
ENDBRANCH  52  57
ENDBRANCH  46  48
ENDBRANCH  43  44
ENDBRANCH  42  43
ENDBRANCH  37  42
ENDBRANCH  36  37
ENDBRANCH   9  36
TORSDOF 18
