REMARK  Name = DB14722
REMARK                            x       y       z     vdW  Elec       q    Type
REMARK                         _______ _______ _______ _____ _____    ______ ____
ROOT
ATOM      1  C   LIG    1        1.498   0.034   0.059  0.00  0.00    +0.254 C 
ATOM      2  C   LIG    1        1.889   0.544   1.439  0.00  0.00    +0.209 C 
ATOM      3  C   LIG    1        3.178  -0.236   1.659  0.00  0.00    +0.179 C 
ATOM      4  C   LIG    1        2.801  -1.617   1.106  0.00  0.00    +0.178 C 
ATOM      5  C   LIG    1        2.100  -2.559   2.106  0.00  0.00    +0.205 C 
ATOM      6  O   LIG    1        2.883  -2.720   3.281  0.00  0.00    -0.298 OA
ATOM      7  P   LIG    1        2.245  -2.500   4.768  0.00  0.00    +0.389 P 
ATOM      8  O   LIG    1        0.767  -2.313   4.824  0.00  0.00    -0.246 OA
ATOM      9  O   LIG    1        3.141  -1.281   5.383  0.00  0.00    -0.292 OA
ATOM     10  C   LIG    1        2.636   0.048   5.482  0.00  0.00    +0.192 C 
ATOM     11  C   LIG    1        1.948   0.315   6.819  0.00  0.00    +0.196 C 
ATOM     12  C   LIG    1        3.172   0.477   7.718  0.00  0.00    +0.253 C 
ATOM     13  O   LIG    1        4.154   1.075   6.920  0.00  0.00    -0.346 OA
ATOM     14  C   LIG    1        3.859   0.968   5.531  0.00  0.00    +0.179 C 
ATOM     15  C   LIG    1        3.651   2.386   4.965  0.00  0.00    +0.205 C 
ATOM     16  O   LIG    1        3.443   2.311   3.565  0.00  0.00    -0.298 OA
ATOM     17  P   LIG    1        2.021   2.741   2.894  0.00  0.00    +0.389 P 
ATOM     18  O   LIG    1        0.811   2.495   3.727  0.00  0.00    -0.246 OA
ATOM     19  O   LIG    1        2.050   1.954   1.467  0.00  0.00    -0.290 OA
ATOM     20  O   LIG    1        1.870  -1.318   0.062  0.00  0.00    -0.346 OA
ENDROOT
BRANCH   1  21
ATOM     21  N   LIG    1        0.041   0.189  -0.333  0.00  0.00    -0.285 N 
ATOM     22  C   LIG    1       -1.061  -0.251   0.354  0.00  0.00    +0.167 A 
ATOM     23  N   LIG    1       -1.135  -0.849   1.569  0.00  0.00    -0.216 NA
ATOM     24  C   LIG    1       -2.404  -1.117   1.914  0.00  0.00    +0.225 A 
ATOM     25  N   LIG    1       -3.534  -0.879   1.234  0.00  0.00    -0.219 NA
ATOM     26  C   LIG    1       -3.430  -0.286   0.013  0.00  0.00    +0.147 A 
ATOM     27  C   LIG    1       -2.139   0.044  -0.464  0.00  0.00    +0.147 A 
ATOM     28  N   LIG    1       -1.734   0.600  -1.616  0.00  0.00    -0.231 NA
ATOM     29  C   LIG    1       -0.429   0.639  -1.514  0.00  0.00    +0.203 A 
BRANCH  26  30
ATOM     30  N   LIG    1       -4.595  -0.040  -0.711  0.00  0.00    -0.341 N 
ATOM     31  H   LIG    1       -5.486  -0.302  -0.315  0.00  0.00    +0.144 HD
ATOM     32  H   LIG    1       -4.532   0.396  -1.619  0.00  0.00    +0.144 HD
ENDBRANCH  26  30
ENDBRANCH   1  21
BRANCH  12  33
ATOM     33  N   LIG    1        2.976   1.277   8.992  0.00  0.00    -0.286 N 
ATOM     34  C   LIG    1        2.541   2.571   9.100  0.00  0.00    +0.167 A 
ATOM     35  N   LIG    1        2.100   3.414   8.133  0.00  0.00    -0.216 NA
ATOM     36  C   LIG    1        1.746   4.605   8.639  0.00  0.00    +0.225 A 
ATOM     37  N   LIG    1        1.780   5.030   9.910  0.00  0.00    -0.219 NA
ATOM     38  C   LIG    1        2.235   4.166  10.858  0.00  0.00    +0.147 A 
ATOM     39  C   LIG    1        2.641   2.874  10.448  0.00  0.00    +0.147 A 
ATOM     40  N   LIG    1        3.143   1.841  11.140  0.00  0.00    -0.231 NA
ATOM     41  C   LIG    1        3.360   0.921  10.234  0.00  0.00    +0.203 A 
BRANCH  38  42
ATOM     42  N   LIG    1        2.289   4.595  12.183  0.00  0.00    -0.341 N 
ATOM     43  H   LIG    1        1.993   5.533  12.412  0.00  0.00    +0.144 HD
ATOM     44  H   LIG    1        2.639   3.968  12.892  0.00  0.00    +0.144 HD
ENDBRANCH  38  42
ENDBRANCH  12  33
BRANCH   3  45
ATOM     45  O   LIG    1        4.298   0.318   0.988  0.00  0.00    -0.386 OA
ATOM     46  H   LIG    1        4.467   1.191   1.351  0.00  0.00    +0.210 HD
ENDBRANCH   3  45
BRANCH   7  47
ATOM     47  S   LIG    1        2.937  -4.191   5.846  0.00  0.00    -0.058 S 
ATOM     48  H   LIG    1        4.290  -4.276   5.735  0.00  0.00    +0.114 HD
ENDBRANCH   7  47
BRANCH  11  49
ATOM     49  O   LIG    1        1.088  -0.692   7.313  0.00  0.00    -0.385 OA
ATOM     50  H   LIG    1        0.341  -0.775   6.716  0.00  0.00    +0.210 HD
ENDBRANCH  11  49
BRANCH  17  51
ATOM     51  S   LIG    1        2.322   4.770   2.354  0.00  0.00    -0.058 S 
ATOM     52  H   LIG    1        3.448   4.876   1.599  0.00  0.00    +0.114 HD
ENDBRANCH  17  51
TORSDOF 8
