REMARK  Name = DB14002
REMARK                            x       y       z     vdW  Elec       q    Type
REMARK                         _______ _______ _______ _____ _____    ______ ____
ROOT
ATOM      1  C   LIG    1       10.177  -2.202   3.037  0.00  0.00    +0.048 C 
ATOM      2  C   LIG    1        9.549  -1.673   1.745  0.00  0.00    -0.001 A 
ATOM      3  C   LIG    1       10.299  -0.843   0.892  0.00  0.00    +0.138 A 
ATOM      4  C   LIG    1        9.753  -0.403  -0.328  0.00  0.00    -0.001 A 
ATOM      5  C   LIG    1        8.437  -0.755  -0.670  0.00  0.00    -0.002 A 
ATOM      6  C   LIG    1        7.692  -1.569   0.196  0.00  0.00    +0.128 A 
ATOM      7  O   LIG    1        6.378  -1.820  -0.181  0.00  0.00    -0.485 OA
ATOM      8  C   LIG    1        5.720  -2.968   0.374  0.00  0.00    +0.108 C 
ATOM      9  C   LIG    1        6.340  -4.260  -0.221  0.00  0.00    +0.055 C 
ATOM     10  C   LIG    1        5.906  -2.888   1.914  0.00  0.00    +0.052 C 
ATOM     11  C   LIG    1        7.389  -2.955   2.304  0.00  0.00    +0.043 C 
ATOM     12  C   LIG    1        7.804  -0.232  -1.964  0.00  0.00    +0.048 C 
ATOM     13  C   LIG    1       10.600   0.444  -1.282  0.00  0.00    +0.048 C 
ATOM     14  C   LIG    1        8.235  -2.041   1.410  0.00  0.00    +0.001 A 
ENDROOT
BRANCH   8  15
ATOM     15  C   LIG    1        4.222  -2.826  -0.016  0.00  0.00    +0.048 C 
BRANCH  15  16
ATOM     16  C   LIG    1        3.497  -1.547   0.460  0.00  0.00    +0.004 C 
BRANCH  16  17
ATOM     17  C   LIG    1        2.053  -1.445  -0.072  0.00  0.00    +0.003 C 
BRANCH  17  18
ATOM     18  C   LIG    1        1.316  -0.125   0.269  0.00  0.00    -0.014 C 
ATOM     19  C   LIG    1        1.168   0.086   1.793  0.00  0.00    +0.007 C 
BRANCH  18  20
ATOM     20  C   LIG    1       -0.048  -0.061  -0.464  0.00  0.00    +0.003 C 
BRANCH  20  21
ATOM     21  C   LIG    1       -0.768   1.302  -0.390  0.00  0.00    +0.001 C 
BRANCH  21  22
ATOM     22  C   LIG    1       -2.082   1.329  -1.199  0.00  0.00    +0.003 C 
BRANCH  22  23
ATOM     23  C   LIG    1       -2.932   2.613  -1.022  0.00  0.00    -0.014 C 
ATOM     24  C   LIG    1       -4.343   2.404  -1.613  0.00  0.00    +0.007 C 
BRANCH  23  25
ATOM     25  C   LIG    1       -2.236   3.873  -1.601  0.00  0.00    +0.003 C 
BRANCH  25  26
ATOM     26  C   LIG    1       -2.952   5.206  -1.297  0.00  0.00    +0.001 C 
BRANCH  26  27
ATOM     27  C   LIG    1       -2.174   6.434  -1.810  0.00  0.00    +0.003 C 
BRANCH  27  28
ATOM     28  C   LIG    1       -2.890   7.789  -1.595  0.00  0.00    -0.017 C 
ATOM     29  C   LIG    1       -3.067   8.142  -0.105  0.00  0.00    +0.007 C 
ATOM     30  C   LIG    1       -2.160   8.923  -2.339  0.00  0.00    +0.007 C 
ENDBRANCH  27  28
ENDBRANCH  26  27
ENDBRANCH  25  26
ENDBRANCH  23  25
ENDBRANCH  22  23
ENDBRANCH  21  22
ENDBRANCH  20  21
ENDBRANCH  18  20
ENDBRANCH  17  18
ENDBRANCH  16  17
ENDBRANCH  15  16
ENDBRANCH   8  15
BRANCH   3  31
ATOM     31  O   LIG    1       11.587  -0.482   1.240  0.00  0.00    -0.425 OA
BRANCH  31  32
ATOM     32  C   LIG    1       11.790   0.654   1.964  0.00  0.00    +0.309 C 
ATOM     33  O   LIG    1       10.928   1.440   2.364  0.00  0.00    -0.251 OA
ATOM     34  C   LIG    1       13.266   0.887   2.259  0.00  0.00    +0.136 C 
ENDBRANCH  31  32
ENDBRANCH   3  31
TORSDOF 14
