REMARK  Name = DB14813
REMARK                            x       y       z     vdW  Elec       q    Type
REMARK                         _______ _______ _______ _____ _____    ______ ____
ROOT
ATOM      1  C   LIG    1       -2.394   0.567   1.358  0.00  0.00    +0.056 C 
ATOM      2  C   LIG    1       -1.761   1.194   0.081  0.00  0.00    +0.003 C 
ATOM      3  C   LIG    1       -0.228   1.468   0.185  0.00  0.00    -0.067 C 
ATOM      4  N   LIG    1        0.400   0.076   0.404  0.00  0.00    +0.384 N 
ATOM      5  H   LIG    1       -0.118  -0.597  -0.142  0.00  0.00    -0.081 HD
ATOM      6  C   LIG    1        0.090  -0.128   1.903  0.00  0.00    -0.067 C 
ATOM      7  C   LIG    1        0.465   1.220   2.535  0.00  0.00    -0.017 C 
ATOM      8  C   LIG    1        0.295   2.249   1.415  0.00  0.00    -0.017 C 
ATOM      9  C   LIG    1       -1.419  -0.472   2.019  0.00  0.00    +0.003 C 
ENDROOT
BRANCH   1  17
ATOM     10  C   LIG    1       -7.009   0.556   5.354  0.00  0.00    +0.218 C 
ATOM     11  N   LIG    1       -5.665   0.732   5.510  0.00  0.00    -0.299 N 
ATOM     12  C   LIG    1       -5.057   2.083   5.438  0.00  0.00    +0.133 C 
ATOM     13  C   LIG    1       -4.256   2.141   4.146  0.00  0.00    +0.078 C 
ATOM     14  N   LIG    1       -3.872   3.258   3.450  0.00  0.00    -0.286 NA
ATOM     15  H   LIG    1       -4.118   4.206   3.699  0.00  0.00    +0.124 HD
ATOM     16  C   LIG    1       -3.207   2.889   2.301  0.00  0.00    +0.103 C 
ATOM     17  N   LIG    1       -3.053   1.489   2.328  0.00  0.00    -0.270 NA
ATOM     18  C   LIG    1       -2.907   3.929   1.233  0.00  0.00    +0.048 C 
ATOM     19  C   LIG    1       -3.839   1.044   3.407  0.00  0.00    +0.067 C 
ATOM     20  C   LIG    1       -4.231  -0.383   3.818  0.00  0.00    +0.045 C 
ATOM     21  C   LIG    1       -4.690  -0.364   5.307  0.00  0.00    +0.110 C 
ATOM     22  O   LIG    1       -7.786   1.511   5.270  0.00  0.00    -0.275 OA
BRANCH  10  24
ATOM     23  C   LIG    1       -9.020  -0.972   4.811  0.00  0.00    +0.017 C 
ATOM     24  C   LIG    1       -7.611  -0.874   5.439  0.00  0.00    +0.069 C 
ATOM     25  C   LIG    1       -7.629  -1.383   6.896  0.00  0.00    +0.017 C 
ENDBRANCH  10  24
ENDBRANCH   1  17
BRANCH   4  26
ATOM     26  C   LIG    1        1.891  -0.041   0.005  0.00  0.00    -0.076 C 
BRANCH  26  27
ATOM     27  C   LIG    1        2.304  -1.523  -0.085  0.00  0.00    +0.008 C 
BRANCH  27  28
ATOM     28  C   LIG    1        3.803  -1.769  -0.399  0.00  0.00    +0.101 C 
BRANCH  28  29
ATOM     29  C   LIG    1        4.104  -3.272  -0.474  0.00  0.00    -0.025 A 
ATOM     30  C   LIG    1        4.167  -4.015   0.713  0.00  0.00    +0.043 A 
ATOM     31  C   LIG    1        4.453  -5.380   0.686  0.00  0.00    +0.124 A 
ATOM     32  F   LIG    1        4.504  -6.083   1.840  0.00  0.00    -0.205 F 
ATOM     33  C   LIG    1        4.686  -6.019  -0.530  0.00  0.00    +0.038 A 
ATOM     34  C   LIG    1        4.635  -5.293  -1.719  0.00  0.00    +0.003 A 
ATOM     35  C   LIG    1        4.349  -3.927  -1.692  0.00  0.00    +0.005 A 
ENDBRANCH  28  29
BRANCH  28  36
ATOM     36  N   LIG    1        4.270  -1.019  -1.577  0.00  0.00    -0.309 N 
ATOM     37  H   LIG    1        4.056  -1.434  -2.473  0.00  0.00    +0.149 HD
ATOM     38  C   LIG    1        4.878   0.181  -1.566  0.00  0.00    +0.210 C 
ATOM     39  O   LIG    1        5.120   0.818  -0.541  0.00  0.00    -0.276 OA
ATOM     40  C   LIG    1        5.266   0.758  -2.923  0.00  0.00    +0.109 C 
ENDBRANCH  28  36
ENDBRANCH  27  28
ENDBRANCH  26  27
ENDBRANCH   4  26
TORSDOF 7
