REMARK  Name = DB14176
REMARK                            x       y       z     vdW  Elec       q    Type
REMARK                         _______ _______ _______ _____ _____    ______ ____
ROOT
ATOM      1  C   LIG    1        1.506  -0.134   0.000  0.00  0.00    +0.340 C 
ATOM      2  O   LIG    1        2.118  -1.206   0.000  0.00  0.00    -0.245 OA
ENDROOT
BRANCH   1   4
ATOM      3  C   LIG    1       -0.658   1.199   0.000  0.00  0.00    +0.018 A 
ATOM      4  C   LIG    1        0.007  -0.038   0.000  0.00  0.00    +0.059 A 
ATOM      5  C   LIG    1       -0.753  -1.217   0.000  0.00  0.00    +0.018 A 
ATOM      6  C   LIG    1       -2.144  -1.163   0.000  0.00  0.00    +0.046 A 
ATOM      7  C   LIG    1       -2.788   0.072   0.000  0.00  0.00    +0.117 A 
ATOM      8  C   LIG    1       -2.050   1.252   0.000  0.00  0.00    +0.046 A 
BRANCH   7   9
ATOM      9  O   LIG    1       -4.157   0.127   0.000  0.00  0.00    -0.507 OA
ATOM     10  H   LIG    1       -4.566  -0.741   0.000  0.00  0.00    +0.292 HD
ENDBRANCH   7   9
ENDBRANCH   1   4
BRANCH   1  11
ATOM     11  O   LIG    1        2.119   1.076   0.000  0.00  0.00    -0.456 OA
BRANCH  11  12
ATOM     12  C   LIG    1        3.537   1.181   0.000  0.00  0.00    +0.268 C 
BRANCH  12  13
ATOM     13  C   LIG    1        3.932   2.646   0.000  0.00  0.00    -0.010 A 
ATOM     14  C   LIG    1        4.111   3.317  -1.211  0.00  0.00    +0.007 A 
ATOM     15  C   LIG    1        4.471   4.663  -1.211  0.00  0.00    +0.000 A 
ATOM     16  C   LIG    1        4.649   5.329   0.000  0.00  0.00    +0.000 A 
ATOM     17  C   LIG    1        4.471   4.663   1.211  0.00  0.00    +0.000 A 
ATOM     18  C   LIG    1        4.111   3.317   1.211  0.00  0.00    +0.007 A 
ENDBRANCH  12  13
ENDBRANCH  11  12
ENDBRANCH   1  11
TORSDOF 5
