REMARK  Name = DB14476
REMARK                            x       y       z     vdW  Elec       q    Type
REMARK                         _______ _______ _______ _____ _____    ______ ____
ROOT
ATOM      1  C   LIG    1        2.066  -3.816  -1.407  0.00  0.00    +0.048 C 
ENDROOT
BRANCH   1   2
ATOM      2  C   LIG    1        1.578  -4.564  -2.678  0.00  0.00    +0.108 C 
ATOM      3  O   LIG    1        0.149  -4.419  -2.691  0.00  0.00    -0.485 OA
ATOM      4  C   LIG    1       -0.543  -4.770  -3.845  0.00  0.00    +0.128 A 
ATOM      5  C   LIG    1        0.070  -4.806  -5.115  0.00  0.00    +0.001 A 
ATOM      6  C   LIG    1       -0.727  -5.096  -6.237  0.00  0.00    -0.002 A 
ATOM      7  C   LIG    1       -2.103  -5.337  -6.087  0.00  0.00    +0.123 A 
ATOM      8  C   LIG    1       -2.701  -5.303  -4.817  0.00  0.00    -0.002 A 
ATOM      9  C   LIG    1       -4.197  -5.596  -4.660  0.00  0.00    +0.048 C 
ATOM     10  C   LIG    1       -0.080  -5.171  -7.623  0.00  0.00    +0.048 C 
ATOM     11  C   LIG    1        1.577  -4.555  -5.229  0.00  0.00    +0.043 C 
ATOM     12  C   LIG    1       -1.917  -5.010  -3.688  0.00  0.00    -0.002 A 
ATOM     13  C   LIG    1       -2.560  -4.924  -2.301  0.00  0.00    +0.048 C 
ATOM     14  C   LIG    1        2.118  -3.878  -3.962  0.00  0.00    +0.052 C 
ATOM     15  C   LIG    1        1.939  -6.072  -2.631  0.00  0.00    +0.055 C 
BRANCH   7  16
ATOM     16  O   LIG    1       -2.874  -5.599  -7.195  0.00  0.00    -0.506 OA
ATOM     17  H   LIG    1       -3.798  -5.743  -6.978  0.00  0.00    +0.292 HD
ENDBRANCH   7  16
ENDBRANCH   1   2
BRANCH   1  18
ATOM     18  C   LIG    1        1.657  -2.330  -1.281  0.00  0.00    +0.004 C 
BRANCH  18  19
ATOM     19  C   LIG    1        2.055  -1.708   0.074  0.00  0.00    +0.003 C 
BRANCH  19  20
ATOM     20  C   LIG    1        1.704  -0.206   0.228  0.00  0.00    -0.014 C 
ATOM     21  C   LIG    1        2.450   0.398   1.437  0.00  0.00    +0.007 C 
BRANCH  20  22
ATOM     22  C   LIG    1        0.174   0.039   0.306  0.00  0.00    +0.003 C 
BRANCH  22  23
ATOM     23  C   LIG    1       -0.252   1.521   0.247  0.00  0.00    +0.001 C 
BRANCH  23  24
ATOM     24  C   LIG    1       -1.786   1.694   0.202  0.00  0.00    +0.003 C 
BRANCH  24  25
ATOM     25  C   LIG    1       -2.297   3.151   0.067  0.00  0.00    -0.014 C 
ATOM     26  C   LIG    1       -1.898   3.781  -1.285  0.00  0.00    +0.007 C 
BRANCH  25  27
ATOM     27  C   LIG    1       -1.904   4.033   1.278  0.00  0.00    +0.003 C 
BRANCH  27  28
ATOM     28  C   LIG    1       -2.647   5.383   1.352  0.00  0.00    +0.001 C 
BRANCH  28  29
ATOM     29  C   LIG    1       -2.302   6.190   2.619  0.00  0.00    +0.003 C 
BRANCH  29  31
ATOM     30  C   LIG    1       -2.394   8.403   3.872  0.00  0.00    +0.007 C 
ATOM     31  C   LIG    1       -2.954   7.592   2.688  0.00  0.00    -0.017 C 
ATOM     32  C   LIG    1       -4.493   7.536   2.748  0.00  0.00    +0.007 C 
ENDBRANCH  29  31
ENDBRANCH  28  29
ENDBRANCH  27  28
ENDBRANCH  25  27
ENDBRANCH  24  25
ENDBRANCH  23  24
ENDBRANCH  22  23
ENDBRANCH  20  22
ENDBRANCH  19  20
ENDBRANCH  18  19
ENDBRANCH   1  18
TORSDOF 13
