REMARK  Name = DB14857
REMARK                            x       y       z     vdW  Elec       q    Type
REMARK                         _______ _______ _______ _____ _____    ______ ____
ROOT
ATOM      1  C   LIG    1        0.105  -0.010  -0.002  0.00  0.00    +0.086 C 
ATOM      2  C   LIG    1        1.630  -0.097  -0.006  0.00  0.00    +0.111 A 
ATOM      3  N   LIG    1        2.287  -1.331  -0.022  0.00  0.00    -0.284 N 
ATOM      4  C   LIG    1        3.676  -1.453  -0.014  0.00  0.00    +0.264 A 
ATOM      5  O   LIG    1        4.254  -2.543  -0.019  0.00  0.00    -0.267 OA
ATOM      6  C   LIG    1        4.422  -0.118  -0.003  0.00  0.00    +0.085 A 
ATOM      7  C   LIG    1        5.833  -0.017   0.002  0.00  0.00    +0.039 A 
ATOM      8  C   LIG    1        6.428   1.248   0.011  0.00  0.00    +0.023 A 
ATOM      9  C   LIG    1        5.650   2.403   0.015  0.00  0.00    +0.004 A 
ATOM     10  C   LIG    1        4.262   2.308   0.011  0.00  0.00    +0.029 A 
ATOM     11  C   LIG    1        3.653   1.053   0.003  0.00  0.00    +0.080 A 
ATOM     12  N   LIG    1        2.257   1.021   0.005  0.00  0.00    -0.234 NA
ENDROOT
BRANCH   3  13
ATOM     13  C   LIG    1        1.492  -2.611  -0.003  0.00  0.00    +0.178 C 
ATOM     14  C   LIG    1        1.611  -3.440  -1.321  0.00  0.00    +0.242 C 
ATOM     15  O   LIG    1        2.025  -2.990  -2.390  0.00  0.00    -0.273 OA
ATOM     16  N   LIG    1        1.166  -4.715  -1.220  0.00  0.00    -0.255 N 
ATOM     17  H   LIG    1        1.203  -5.230  -2.088  0.00  0.00    +0.158 HD
ATOM     18  C   LIG    1        0.675  -5.432  -0.178  0.00  0.00    +0.219 C 
ATOM     19  O   LIG    1        0.274  -6.584  -0.326  0.00  0.00    -0.275 OA
ATOM     20  C   LIG    1        0.633  -4.696   1.183  0.00  0.00    +0.099 C 
ATOM     21  C   LIG    1        1.649  -3.539   1.227  0.00  0.00    +0.044 C 
ENDBRANCH   3  13
BRANCH   7  22
ATOM     22  N   LIG    1        6.692  -1.120  -0.002  0.00  0.00    -0.357 N 
ATOM     23  H   LIG    1        6.297  -2.050  -0.013  0.00  0.00    +0.142 HD
ATOM     24  H   LIG    1        7.691  -0.975   0.003  0.00  0.00    +0.142 HD
ENDBRANCH   7  22
TORSDOF 2
