REMARK  Name = DB14965
REMARK                            x       y       z     vdW  Elec       q    Type
REMARK                         _______ _______ _______ _____ _____    ______ ____
ROOT
ATOM      1  N   UNK A  1        1.458   0.039  -0.106  0.00  0.00    -0.302 N 
ATOM      2  H   UNK A  1        1.830   0.962   0.067  0.00  0.00    +0.150 HD
ATOM      3  C   UNK A  1        2.311  -0.951  -0.423  0.00  0.00    +0.214 C 
ATOM      4  O   UNK A  1        1.946  -2.089  -0.722  0.00  0.00    -0.276 OA
ENDROOT
BRANCH   1   5
ATOM      5  C   UNK A  1       -0.011  -0.053  -0.070  0.00  0.00    +0.182 C 
BRANCH   5   6
ATOM      6  C   UNK A  1       -0.542   1.379  -0.446  0.00  0.00    +0.325 C 
ATOM      7  O   UNK A  1       -1.021   1.474  -1.601  0.00  0.00    -0.249 OA
BRANCH   6   8
ATOM      8  O   UNK A  1       -0.398   2.276   0.421  0.00  0.00    -0.479 OA
ATOM      9  H   UNK A  1       -0.696   3.147   0.248  0.00  0.00    +0.295 HD
ENDBRANCH   6   8
ENDBRANCH   5   6
BRANCH   5  10
ATOM     10  C   UNK A  1       -0.564  -0.544   1.303  0.00  0.00    +0.036 C 
BRANCH  10  11
ATOM     11  C   UNK A  1       -0.241  -2.015   1.643  0.00  0.00    +0.031 C 
BRANCH  11  12
ATOM     12  C   UNK A  1       -0.899  -2.506   2.942  0.00  0.00    +0.171 C 
BRANCH  12  13
ATOM     13  O   UNK A  1       -2.308  -2.522   2.797  0.00  0.00    -0.296 OA
BRANCH  13  14
ATOM     14  P   UNK A  1       -3.217  -3.097   4.143  0.00  0.00    +0.406 P 
ATOM     15  O   UNK A  1       -2.821  -4.540   4.372  0.00  0.00    -0.240 OA
BRANCH  14  16
ATOM     16  N   UNK A  1       -4.851  -3.024   3.420  0.00  0.00    -0.209 NA
ATOM     17  H   UNK A  1       -5.583  -2.435   3.817  0.00  0.00    +0.134 HD
BRANCH  16  18
ATOM     18  C   UNK A  1       -5.311  -4.030   2.448  0.00  0.00    +0.173 C 
BRANCH  18  19
ATOM     19  C   UNK A  1       -5.728  -3.365   1.076  0.00  0.00    +0.322 C 
ATOM     20  O   UNK A  1       -4.805  -2.740   0.503  0.00  0.00    -0.249 OA
BRANCH  19  21
ATOM     21  O   UNK A  1       -6.906  -3.534   0.675  0.00  0.00    -0.480 OA
ATOM     22  H   UNK A  1       -7.184  -3.153  -0.134  0.00  0.00    +0.295 HD
ENDBRANCH  19  21
ENDBRANCH  18  19
BRANCH  18  23
ATOM     23  C   UNK A  1       -6.405  -4.971   3.046  0.00  0.00    +0.042 C 
BRANCH  23  24
ATOM     24  C   UNK A  1       -5.919  -5.816   4.250  0.00  0.00    +0.122 C 
BRANCH  24  25
ATOM     25  C   UNK A  1       -6.948  -6.799   4.842  0.00  0.00    +0.305 C 
ATOM     26  O   UNK A  1       -6.544  -7.527   5.776  0.00  0.00    -0.251 OA
BRANCH  25  27
ATOM     27  O   UNK A  1       -8.111  -6.828   4.379  0.00  0.00    -0.481 OA
ATOM     28  H   UNK A  1       -8.246  -6.926   3.457  0.00  0.00    +0.295 HD
ENDBRANCH  25  27
ENDBRANCH  24  25
ENDBRANCH  23  24
ENDBRANCH  18  23
ENDBRANCH  16  18
ENDBRANCH  14  16
BRANCH  14  29
ATOM     29  O   UNK A  1       -3.116  -2.054   5.235  0.00  0.00    -0.312 OA
ATOM     30  H   UNK A  1       -3.619  -2.348   6.011  0.00  0.00    +0.221 HD
ENDBRANCH  14  29
ENDBRANCH  13  14
ENDBRANCH  12  13
ENDBRANCH  11  12
ENDBRANCH  10  11
ENDBRANCH   5  10
ENDBRANCH   1   5
BRANCH   3  31
ATOM     31  C   UNK A  1        3.803  -0.587  -0.433  0.00  0.00    +0.098 C 
BRANCH  31  32
ATOM     32  C   UNK A  1        4.737  -1.721   0.065  0.00  0.00    +0.043 C 
BRANCH  32  33
ATOM     33  C   UNK A  1        6.100  -1.229   0.647  0.00  0.00    +0.182 C 
BRANCH  33  34
ATOM     34  N   UNK A  1        7.007  -2.329   0.999  0.00  0.00    -0.302 N 
ATOM     35  H   UNK A  1        7.224  -2.399   1.983  0.00  0.00    +0.150 HD
ATOM     36  C   UNK A  0        7.617  -3.172   0.146  0.00  0.00    +0.214 C 
ATOM     37  O   UNK A  0        7.427  -3.146  -1.070  0.00  0.00    -0.276 OA
BRANCH  36  38
ATOM     38  C   UNK A  0        8.576  -4.225   0.732  0.00  0.00    +0.096 C 
BRANCH  38  39
ATOM     39  C   UNK A  0        9.147  -3.937   2.144  0.00  0.00    +0.009 C 
BRANCH  39  40
ATOM     40  C   UNK A  0       10.082  -2.711   2.214  0.00  0.00    +0.002 C 
BRANCH  40  41
ATOM     41  C   UNK A  0       10.583  -2.414   3.638  0.00  0.00    +0.019 C 
BRANCH  41  42
ATOM     42  C   UNK A  0       11.489  -1.168   3.700  0.00  0.00    +0.104 C 
BRANCH  42  43
ATOM     43  N   UNK A  0       11.905  -0.807   5.054  0.00  0.00    -0.311 N 
ATOM     44  H   UNK A  0       11.433  -0.017   5.468  0.00  0.00    +0.149 HD
ATOM     45  C   UNK A  0       12.862  -1.432   5.767  0.00  0.00    +0.244 C 
ATOM     46  O   UNK A  0       13.506  -2.387   5.325  0.00  0.00    -0.270 OA
BRANCH  45  47
ATOM     47  C   UNK A  0       13.139  -0.886   7.153  0.00  0.00    +0.037 A 
ATOM     48  C   UNK A  0       12.238  -0.022   7.798  0.00  0.00    +0.016 A 
ATOM     49  C   UNK A  0       12.513   0.463   9.074  0.00  0.00    +0.039 A 
ATOM     50  C   UNK A  0       13.688   0.087   9.719  0.00  0.00    +0.123 A 
ATOM     51  F   UNK A  0       13.953   0.557  10.959  0.00  0.00    -0.205 F 
ATOM     52  C   UNK A  0       14.591  -0.770   9.097  0.00  0.00    +0.039 A 
ATOM     53  C   UNK A  0       14.317  -1.255   7.821  0.00  0.00    +0.016 A 
ENDBRANCH  45  47
ENDBRANCH  42  43
ENDBRANCH  41  42
ENDBRANCH  40  41
ENDBRANCH  39  40
ENDBRANCH  38  39
ENDBRANCH  36  38
ENDBRANCH  33  34
BRANCH  33  54
ATOM     54  C   UNK A  1        5.980  -0.353   1.946  0.00  0.00    +0.325 C 
ATOM     55  O   UNK A  1        6.745   0.639   1.980  0.00  0.00    -0.249 OA
BRANCH  54  56
ATOM     56  O   UNK A  1        5.179  -0.764   2.820  0.00  0.00    -0.479 OA
ATOM     57  H   UNK A  1        5.066  -0.283   3.616  0.00  0.00    +0.295 HD
ENDBRANCH  54  56
ENDBRANCH  33  54
ENDBRANCH  32  33
ENDBRANCH  31  32
ENDBRANCH   3  31
TORSDOF 30
