REMARK  Name = DB14643
REMARK                            x       y       z     vdW  Elec       q    Type
REMARK                         _______ _______ _______ _____ _____    ______ ____
ROOT
ATOM      1  C   LIG    1        1.251   0.168   0.210  0.00  0.00    +0.180 C 
ATOM      2  C   LIG    1        1.722   1.550  -0.365  0.00  0.00    +0.057 C 
ATOM      3  C   LIG    1        2.997   1.937   0.412  0.00  0.00    +0.009 C 
ATOM      4  C   LIG    1        3.221   0.785   1.403  0.00  0.00    +0.003 C 
ATOM      5  C   LIG    1        4.075   1.017   2.681  0.00  0.00    -0.000 C 
ATOM      6  C   LIG    1        5.455   1.610   2.316  0.00  0.00    +0.012 C 
ATOM      7  C   LIG    1        6.385   1.799   3.530  0.00  0.00    +0.013 C 
ATOM      8  C   LIG    1        7.715   2.463   3.110  0.00  0.00    +0.012 C 
ATOM      9  C   LIG    1        6.536   0.434   4.240  0.00  0.00    -0.053 C 
ATOM     10  C   LIG    1        7.727  -0.196   4.421  0.00  0.00    +0.051 C 
ATOM     11  C   LIG    1        7.920  -1.496   5.063  0.00  0.00    +0.179 C 
ATOM     12  O   LIG    1        9.023  -2.017   5.210  0.00  0.00    -0.288 OA
ATOM     13  C   LIG    1        6.679  -2.116   5.506  0.00  0.00    +0.047 C 
ATOM     14  C   LIG    1        5.466  -1.551   5.362  0.00  0.00    -0.012 C 
ATOM     15  C   LIG    1        5.184  -0.181   4.723  0.00  0.00    +0.013 C 
ATOM     16  C   LIG    1        4.614   0.720   5.854  0.00  0.00    +0.020 C 
ATOM     17  C   LIG    1        4.253  -0.334   3.455  0.00  0.00    +0.035 C 
ATOM     18  C   LIG    1        2.888  -1.082   3.691  0.00  0.00    +0.120 C 
ATOM     19  C   LIG    1        2.035  -1.167   2.393  0.00  0.00    +0.043 C 
ATOM     20  C   LIG    1        1.810   0.210   1.689  0.00  0.00    +0.020 C 
ATOM     21  C   LIG    1        0.943   1.159   2.590  0.00  0.00    +0.016 C 
ENDROOT
BRANCH   1  22
ATOM     22  C   LIG    1       -0.300  -0.059   0.141  0.00  0.00    +0.214 C 
ATOM     23  O   LIG    1       -1.074   0.884  -0.036  0.00  0.00    -0.289 OA
BRANCH  22  24
ATOM     24  C   LIG    1       -0.836  -1.496   0.268  0.00  0.00    +0.310 C 
BRANCH  24  25
ATOM     25  O   LIG    1       -2.232  -1.502   0.553  0.00  0.00    -0.457 OA
BRANCH  25  26
ATOM     26  C   LIG    1       -2.882  -2.664   0.766  0.00  0.00    +0.304 C 
ATOM     27  O   LIG    1       -2.386  -3.792   0.745  0.00  0.00    -0.251 OA
ATOM     28  C   LIG    1       -4.363  -2.452   1.053  0.00  0.00    +0.136 C 
ENDBRANCH  25  26
ENDBRANCH  24  25
ENDBRANCH  22  24
ENDBRANCH   1  22
BRANCH  18  29
ATOM     29  O   LIG    1        2.115  -0.576   4.760  0.00  0.00    -0.391 OA
ATOM     30  H   LIG    1        2.640  -0.616   5.562  0.00  0.00    +0.210 HD
ENDBRANCH  18  29
BRANCH   1  31
ATOM     31  O   LIG    1        1.879  -0.934  -0.503  0.00  0.00    -0.450 OA
BRANCH  31  32
ATOM     32  C   LIG    1        1.766  -1.212  -1.842  0.00  0.00    +0.308 C 
ATOM     33  O   LIG    1        1.112  -0.575  -2.667  0.00  0.00    -0.251 OA
BRANCH  32  34
ATOM     34  C   LIG    1        2.545  -2.464  -2.244  0.00  0.00    +0.117 C 
ATOM     35  C   LIG    1        1.975  -3.744  -1.612  0.00  0.00    +0.015 C 
ENDBRANCH  32  34
ENDBRANCH  31  32
ENDBRANCH   1  31
TORSDOF 8
