REMARK  Name = DB14829
REMARK                            x       y       z     vdW  Elec       q    Type
REMARK                         _______ _______ _______ _____ _____    ______ ____
ROOT
ATOM      1  C   LIG    1        1.803  -8.301  -2.047  0.00  0.00    +0.021 C 
ATOM      2  C   LIG    1        0.831  -9.305  -2.749  0.00  0.00    +0.153 C 
ATOM      3  C   LIG    1       -0.663  -8.895  -2.578  0.00  0.00    +0.151 C 
ATOM      4  C   LIG    1       -0.902  -7.441  -3.036  0.00  0.00    +0.047 C 
ATOM      5  C   LIG    1       -0.030  -6.516  -2.152  0.00  0.00    +0.078 C 
ATOM      6  C   LIG    1        1.458  -6.835  -2.445  0.00  0.00    +0.019 C 
ENDROOT
BRANCH   5   7
ATOM      7  C   LIG    1       -0.321  -5.056  -2.567  0.00  0.00    +0.216 C 
ATOM      8  N   LIG    1       -0.886  -4.267  -1.634  0.00  0.00    -0.314 N 
ATOM      9  H   LIG    1       -1.059  -4.656  -0.718  0.00  0.00    +0.149 HD
ATOM     10  O   LIG    1       -0.060  -4.666  -3.707  0.00  0.00    -0.276 OA
BRANCH   8  11
ATOM     11  C   LIG    1       -1.302  -2.875  -1.824  0.00  0.00    +0.123 C 
BRANCH  11  12
ATOM     12  C   LIG    1       -2.445  -2.698  -2.851  0.00  0.00    +0.123 C 
BRANCH  12  13
ATOM     13  N   LIG    1       -2.997  -1.347  -2.872  0.00  0.00    -0.314 N 
ATOM     14  H   LIG    1       -2.617  -0.713  -3.560  0.00  0.00    +0.149 HD
ATOM     15  C   LIG    1       -3.946  -0.900  -2.031  0.00  0.00    +0.215 C 
ATOM     16  O   LIG    1       -4.479  -1.603  -1.171  0.00  0.00    -0.276 OA
BRANCH  15  17
ATOM     17  C   LIG    1       -4.341   0.578  -2.161  0.00  0.00    +0.124 C 
BRANCH  17  18
ATOM     18  C   LIG    1       -3.860   1.406  -0.955  0.00  0.00    +0.169 C 
BRANCH  18  19
ATOM     19  O   LIG    1       -2.439   1.368  -0.917  0.00  0.00    -0.377 OA
BRANCH  19  20
ATOM     20  C   LIG    1       -1.867   1.833   0.295  0.00  0.00    +0.188 C 
BRANCH  20  21
ATOM     21  C   LIG    1       -0.357   1.566   0.260  0.00  0.00    +0.188 C 
BRANCH  21  22
ATOM     22  O   LIG    1       -0.142   0.175   0.036  0.00  0.00    -0.375 OA
BRANCH  22  23
ATOM     23  C   LIG    1        1.217  -0.248   0.069  0.00  0.00    +0.188 C 
BRANCH  23  24
ATOM     24  C   LIG    1        1.808  -0.339   1.495  0.00  0.00    +0.188 C 
BRANCH  24  25
ATOM     25  O   LIG    1        1.243  -1.366   2.309  0.00  0.00    -0.375 OA
BRANCH  25  26
ATOM     26  C   LIG    1       -0.136  -1.230   2.640  0.00  0.00    +0.188 C 
BRANCH  26  27
ATOM     27  C   LIG    1       -0.465  -2.151   3.821  0.00  0.00    +0.188 C 
BRANCH  27  28
ATOM     28  O   LIG    1        0.274  -1.730   4.960  0.00  0.00    -0.375 OA
BRANCH  28  29
ATOM     29  C   LIG    1        0.105  -2.564   6.098  0.00  0.00    +0.188 C 
BRANCH  29  30
ATOM     30  C   LIG    1        0.858  -1.955   7.288  0.00  0.00    +0.188 C 
BRANCH  30  31
ATOM     31  O   LIG    1        2.238  -1.834   6.968  0.00  0.00    -0.375 OA
BRANCH  31  32
ATOM     32  C   LIG    1        3.009  -1.218   7.991  0.00  0.00    +0.188 C 
BRANCH  32  33
ATOM     33  C   LIG    1        4.472  -1.142   7.539  0.00  0.00    +0.188 C 
BRANCH  33  34
ATOM     34  O   LIG    1        5.240  -0.527   8.564  0.00  0.00    -0.375 OA
BRANCH  34  35
ATOM     35  C   LIG    1        6.627  -0.436   8.263  0.00  0.00    +0.188 C 
BRANCH  35  36
ATOM     36  C   LIG    1        7.361   0.216   9.442  0.00  0.00    +0.188 C 
BRANCH  36  37
ATOM     37  O   LIG    1        6.888   1.544   9.626  0.00  0.00    -0.375 OA
BRANCH  37  38
ATOM     38  C   LIG    1        7.431   2.189  10.770  0.00  0.00    +0.188 C 
BRANCH  38  39
ATOM     39  C   LIG    1        6.952   3.646  10.820  0.00  0.00    +0.188 C 
BRANCH  39  40
ATOM     40  O   LIG    1        7.439   4.345   9.681  0.00  0.00    -0.375 OA
BRANCH  40  41
ATOM     41  C   LIG    1        7.076   5.719   9.655  0.00  0.00    +0.188 C 
BRANCH  41  42
ATOM     42  C   LIG    1        7.700   6.378   8.420  0.00  0.00    +0.188 C 
BRANCH  42  43
ATOM     43  O   LIG    1        7.387   7.765   8.427  0.00  0.00    -0.375 OA
BRANCH  43  44
ATOM     44  C   LIG    1        7.958   8.485   7.343  0.00  0.00    +0.188 C 
BRANCH  44  45
ATOM     45  C   LIG    1        7.558   9.960   7.459  0.00  0.00    +0.188 C 
BRANCH  45  46
ATOM     46  O   LIG    1        8.165  10.691   6.403  0.00  0.00    -0.375 OA
BRANCH  46  47
ATOM     47  C   LIG    1        7.853  12.078   6.414  0.00  0.00    +0.188 C 
BRANCH  47  48
ATOM     48  C   LIG    1        8.597  12.779   5.271  0.00  0.00    +0.188 C 
BRANCH  48  49
ATOM     49  O   LIG    1        9.998  12.626   5.455  0.00  0.00    -0.375 OA
BRANCH  49  50
ATOM     50  C   LIG    1       10.780  13.233   4.436  0.00  0.00    +0.188 C 
BRANCH  50  51
ATOM     51  C   LIG    1       12.270  13.019   4.757  0.00  0.00    +0.187 C 
BRANCH  51  52
ATOM     52  O   LIG    1       13.135  13.756   3.898  0.00  0.00    -0.381 OA
ATOM     53  C   LIG    1       13.195  13.291   2.556  0.00  0.00    +0.194 C 
ENDBRANCH  51  52
ENDBRANCH  50  51
ENDBRANCH  49  50
ENDBRANCH  48  49
ENDBRANCH  47  48
ENDBRANCH  46  47
ENDBRANCH  45  46
ENDBRANCH  44  45
ENDBRANCH  43  44
ENDBRANCH  42  43
ENDBRANCH  41  42
ENDBRANCH  40  41
ENDBRANCH  39  40
ENDBRANCH  38  39
ENDBRANCH  37  38
ENDBRANCH  36  37
ENDBRANCH  35  36
ENDBRANCH  34  35
ENDBRANCH  33  34
ENDBRANCH  32  33
ENDBRANCH  31  32
ENDBRANCH  30  31
ENDBRANCH  29  30
ENDBRANCH  28  29
ENDBRANCH  27  28
ENDBRANCH  26  27
ENDBRANCH  25  26
ENDBRANCH  24  25
ENDBRANCH  23  24
ENDBRANCH  22  23
ENDBRANCH  21  22
ENDBRANCH  20  21
ENDBRANCH  19  20
ENDBRANCH  18  19
ENDBRANCH  17  18
ENDBRANCH  15  17
ENDBRANCH  12  13
ENDBRANCH  11  12
ENDBRANCH   8  11
ENDBRANCH   5   7
BRANCH   1  55
ATOM     54  C   LIG    1        4.296  -7.882  -1.450  0.00  0.00    +0.004 C 
ATOM     55  C   LIG    1        3.290  -8.620  -2.347  0.00  0.00    +0.003 C 
ENDBRANCH   1  55
BRANCH   3  56
ATOM     56  O   LIG    1       -1.496  -9.793  -3.311  0.00  0.00    -0.344 OA
BRANCH  56  57
ATOM     57  C   LIG    1       -2.751 -10.053  -2.751  0.00  0.00    +0.274 C 
ATOM     58  C   LIG    1       -3.570 -10.844  -3.785  0.00  0.00    +0.160 C 
ATOM     59  C   LIG    1       -4.945 -11.199  -3.155  0.00  0.00    +0.175 C 
ATOM     60  C   LIG    1       -4.759 -11.920  -1.803  0.00  0.00    +0.176 C 
ATOM     61  C   LIG    1       -3.830 -11.076  -0.892  0.00  0.00    +0.178 C 
ATOM     62  O   LIG    1       -2.601 -10.819  -1.581  0.00  0.00    -0.341 OA
BRANCH  58  63
ATOM     63  N   LIG    1       -3.628 -10.196  -5.101  0.00  0.00    -0.305 N 
ATOM     64  H   LIG    1       -3.700  -9.190  -5.093  0.00  0.00    +0.149 HD
ATOM     65  C   LIG    1       -3.572 -10.816  -6.294  0.00  0.00    +0.210 C 
ATOM     66  O   LIG    1       -3.483 -12.035  -6.434  0.00  0.00    -0.276 OA
ATOM     67  C   LIG    1       -3.627  -9.917  -7.525  0.00  0.00    +0.109 C 
ENDBRANCH  58  63
BRANCH  60  68
ATOM     68  O   LIG    1       -4.270 -13.241  -1.978  0.00  0.00    -0.387 OA
ATOM     69  H   LIG    1       -4.907 -13.728  -2.507  0.00  0.00    +0.210 HD
ENDBRANCH  60  68
BRANCH  59  70
ATOM     70  O   LIG    1       -5.779 -11.988  -4.013  0.00  0.00    -0.358 OA
BRANCH  70  71
ATOM     71  C   LIG    1       -6.774 -11.306  -4.793  0.00  0.00    +0.227 C 
BRANCH  71  72
ATOM     72  C   LIG    1       -7.963 -10.873  -3.886  0.00  0.00    +0.334 C 
ATOM     73  O   LIG    1       -8.522  -9.786  -4.160  0.00  0.00    -0.248 OA
BRANCH  72  74
ATOM     74  O   LIG    1       -8.301 -11.617  -2.936  0.00  0.00    -0.479 OA
ATOM     75  H   LIG    1       -9.014 -11.372  -2.380  0.00  0.00    +0.295 HD
ENDBRANCH  72  74
ENDBRANCH  71  72
BRANCH  71  76
ATOM     76  C   LIG    1       -7.227 -12.290  -5.904  0.00  0.00    +0.046 C 
BRANCH  76  77
ATOM     77  C   LIG    1       -8.220 -11.744  -6.964  0.00  0.00    -0.008 C 
ATOM     78  C   LIG    1       -7.637 -10.574  -7.794  0.00  0.00    +0.003 C 
ATOM     79  C   LIG    1       -8.675 -10.017  -8.790  0.00  0.00    +0.000 C 
ATOM     80  C   LIG    1       -9.224 -11.123  -9.718  0.00  0.00    +0.000 C 
ATOM     81  C   LIG    1       -9.724 -12.355  -8.933  0.00  0.00    +0.000 C 
ATOM     82  C   LIG    1       -8.661 -12.861  -7.938  0.00  0.00    +0.003 C 
ENDBRANCH  76  77
ENDBRANCH  71  76
ENDBRANCH  70  71
ENDBRANCH  59  70
BRANCH  61  83
ATOM     83  C   LIG    1       -3.515 -11.751   0.460  0.00  0.00    +0.190 C 
BRANCH  83  84
ATOM     84  O   LIG    1       -2.797 -10.872   1.304  0.00  0.00    -0.392 OA
ATOM     85  H   LIG    1       -2.616 -11.324   2.132  0.00  0.00    +0.210 HD
ENDBRANCH  83  84
ENDBRANCH  61  83
ENDBRANCH  56  57
ENDBRANCH   3  56
BRANCH   2  86
ATOM     86  O   LIG    1        1.080 -10.695  -2.469  0.00  0.00    -0.343 OA
BRANCH  86  87
ATOM     87  C   LIG    1        0.810 -11.206  -1.188  0.00  0.00    +0.282 C 
ATOM     88  C   LIG    1        0.338 -12.677  -1.316  0.00  0.00    +0.201 C 
ATOM     89  C   LIG    1        1.514 -13.651  -1.550  0.00  0.00    +0.179 C 
ATOM     90  C   LIG    1        2.628 -13.413  -0.517  0.00  0.00    +0.174 C 
ATOM     91  C   LIG    1        3.031 -11.926  -0.571  0.00  0.00    +0.149 C 
ATOM     92  C   LIG    1        4.171 -11.557   0.393  0.00  0.00    +0.041 C 
ATOM     93  O   LIG    1        1.912 -11.065  -0.320  0.00  0.00    -0.343 OA
BRANCH  88  94
ATOM     94  O   LIG    1       -0.672 -12.835  -2.297  0.00  0.00    -0.384 OA
ATOM     95  H   LIG    1       -1.427 -12.293  -2.052  0.00  0.00    +0.210 HD
ENDBRANCH  88  94
BRANCH  89  96
ATOM     96  O   LIG    1        1.099 -15.007  -1.575  0.00  0.00    -0.386 OA
ATOM     97  H   LIG    1        0.253 -15.053  -2.029  0.00  0.00    +0.210 HD
ENDBRANCH  89  96
BRANCH  90  98
ATOM     98  O   LIG    1        2.267 -13.821   0.794  0.00  0.00    -0.387 OA
ATOM     99  H   LIG    1        1.467 -13.354   1.047  0.00  0.00    +0.210 HD
ENDBRANCH  90  98
ENDBRANCH  86  87
ENDBRANCH   2  86
TORSDOF 58
