REMARK  Name = DB14050
REMARK                            x       y       z     vdW  Elec       q    Type
REMARK                         _______ _______ _______ _____ _____    ______ ____
ROOT
ATOM      1  C   LIG    1        1.523  -0.054  -0.085  0.00  0.00    +0.043 A 
ATOM      2  C   LIG    1        2.212  -0.574   1.030  0.00  0.00    +0.124 A 
ATOM      3  C   LIG    1        3.607  -0.553   1.073  0.00  0.00    +0.049 A 
ATOM      4  C   LIG    1        4.343  -0.016   0.018  0.00  0.00    -0.040 A 
ATOM      5  C   LIG    1        3.672   0.504  -1.089  0.00  0.00    +0.049 A 
ATOM      6  C   LIG    1        2.278   0.489  -1.145  0.00  0.00    +0.124 A 
ENDROOT
BRANCH   1  11
ATOM      7  C   LIG    1       -2.446   0.951  -1.679  0.00  0.00    +0.031 C 
ATOM      8  C   LIG    1       -1.703  -0.336  -2.047  0.00  0.00    -0.076 C 
ATOM      9  C   LIG    1       -2.188  -1.067  -3.286  0.00  0.00    +0.039 C 
ATOM     10  C   LIG    1       -0.611  -0.750  -1.362  0.00  0.00    -0.019 C 
ATOM     11  C   LIG    1       -0.022  -0.055  -0.128  0.00  0.00    +0.056 C 
ATOM     12  C   LIG    1       -0.633   1.371   0.032  0.00  0.00    +0.026 C 
ATOM     13  C   LIG    1       -2.157   1.355  -0.219  0.00  0.00    +0.013 C 
BRANCH  12  14
ATOM     14  C   LIG    1       -0.273   2.053   1.358  0.00  0.00    -0.076 C 
ATOM     15  C   LIG    1       -0.920   1.500   2.620  0.00  0.00    +0.039 C 
ATOM     16  C   LIG    1        0.580   3.093   1.411  0.00  0.00    +0.007 C 
ENDBRANCH  12  14
ENDBRANCH   1  11
BRANCH   2  17
ATOM     17  O   LIG    1        1.552  -1.109   2.106  0.00  0.00    -0.506 OA
ATOM     18  H   LIG    1        2.149  -1.415   2.793  0.00  0.00    +0.292 HD
ENDBRANCH   2  17
BRANCH   6  19
ATOM     19  O   LIG    1        1.681   1.024  -2.259  0.00  0.00    -0.506 OA
ATOM     20  H   LIG    1        2.315   1.363  -2.894  0.00  0.00    +0.292 HD
ENDBRANCH   6  19
BRANCH   4  21
ATOM     21  C   LIG    1        5.863   0.009   0.078  0.00  0.00    +0.035 C 
BRANCH  21  22
ATOM     22  C   LIG    1        6.410   1.289   0.735  0.00  0.00    +0.001 C 
ATOM     23  C   LIG    1        7.942   1.313   0.809  0.00  0.00    +0.004 C 
ENDBRANCH  21  22
ENDBRANCH   4  21
TORSDOF 6
