REMARK  Name = DB14971
REMARK                            x       y       z     vdW  Elec       q    Type
REMARK                         _______ _______ _______ _____ _____    ______ ____
ROOT
ATOM      1  C   LIG    1        3.349  -1.262   0.064  0.00  0.00    +0.170 A 
ATOM      2  N   LIG    1        4.004  -0.106   0.086  0.00  0.00    -0.228 NA
ATOM      3  C   LIG    1        5.274  -0.416   0.085  0.00  0.00    +0.205 A 
ATOM      4  N   LIG    1        5.506  -1.768   0.074  0.00  0.00    -0.300 N 
ATOM      5  C   LIG    1        6.737  -2.462   0.013  0.00  0.00    +0.061 A 
ATOM      6  C   LIG    1        7.735  -1.954  -0.826  0.00  0.00    +0.027 A 
ATOM      7  C   LIG    1        8.928  -2.645  -1.005  0.00  0.00    +0.003 A 
ATOM      8  C   LIG    1        9.129  -3.859  -0.360  0.00  0.00    +0.015 A 
ATOM      9  C   LIG    1        8.156  -4.388   0.489  0.00  0.00    +0.027 A 
ATOM     10  I   LIG    1        8.611  -6.255   1.348  0.00  0.00    -0.043 I 
ATOM     11  C   LIG    1        6.952  -3.680   0.711  0.00  0.00    +0.074 A 
ATOM     12  C   LIG    1        5.959  -4.253   1.716  0.00  0.00    +0.250 C 
ATOM     13  O   LIG    1        6.350  -4.473   2.865  0.00  0.00    -0.270 OA
ATOM     14  N   LIG    1        4.667  -4.411   1.298  0.00  0.00    -0.295 N 
ATOM     15  C   LIG    1        3.690  -4.995   2.223  0.00  0.00    +0.132 C 
ATOM     16  C   LIG    1        4.138  -3.850   0.049  0.00  0.00    +0.163 C 
ATOM     17  C   LIG    1        4.252  -2.335   0.065  0.00  0.00    +0.075 A 
ENDROOT
BRANCH   1  18
ATOM     18  C   LIG    1        1.884  -1.372   0.058  0.00  0.00    +0.360 C 
ATOM     19  O   LIG    1        1.283  -2.448   0.079  0.00  0.00    -0.243 OA
BRANCH  18  20
ATOM     20  O   LIG    1        1.287  -0.153   0.026  0.00  0.00    -0.460 OA
BRANCH  20  22
ATOM     21  C   LIG    1       -0.516   1.447  -0.002  0.00  0.00    +0.048 C 
ATOM     22  C   LIG    1       -0.129  -0.035   0.010  0.00  0.00    +0.229 C 
ENDBRANCH  20  22
ENDBRANCH  18  20
ENDBRANCH   1  18
TORSDOF 3
