REMARK  Name = DB14059
REMARK                            x       y       z     vdW  Elec       q    Type
REMARK                         _______ _______ _______ _____ _____    ______ ____
ROOT
ATOM      1  C   LIG    1        2.111  -1.046  -0.664  0.00  0.00    +0.075 A 
ATOM      2  N   LIG    1        1.295  -0.096  -0.075  0.00  0.00    -0.232 N 
ATOM      3  N   LIG    1        2.002   0.892   0.503  0.00  0.00    -0.162 NA
ATOM      4  C   LIG    1        3.272   0.605   0.317  0.00  0.00    +0.166 A 
ATOM      5  C   LIG    1        3.393  -0.594  -0.393  0.00  0.00    +0.062 A 
ENDROOT
BRANCH   1   7
ATOM      6  C   LIG    1        2.352  -3.467  -1.213  0.00  0.00    +0.011 A 
ATOM      7  C   LIG    1        1.671  -2.262  -1.413  0.00  0.00    +0.001 A 
ATOM      8  C   LIG    1        0.612  -2.207  -2.325  0.00  0.00    +0.011 A 
ATOM      9  C   LIG    1        0.224  -3.351  -3.016  0.00  0.00    +0.020 A 
ATOM     10  C   LIG    1        0.902  -4.550  -2.804  0.00  0.00    +0.041 A 
ATOM     11 CL   LIG    1        0.421  -5.969  -3.661  0.00  0.00    -0.084 Cl
ATOM     12  C   LIG    1        1.966  -4.611  -1.906  0.00  0.00    +0.020 A 
ENDBRANCH   1   7
BRANCH   2  13
ATOM     13  C   LIG    1       -0.114  -0.070   0.023  0.00  0.00    +0.066 A 
ATOM     14  C   LIG    1       -0.820   1.087  -0.327  0.00  0.00    +0.030 A 
ATOM     15  C   LIG    1       -2.208   1.105  -0.234  0.00  0.00    +0.030 A 
ATOM     16  C   LIG    1       -2.891  -0.029   0.210  0.00  0.00    +0.105 A 
ATOM     17  C   LIG    1       -2.188  -1.182   0.569  0.00  0.00    +0.030 A 
ATOM     18  C   LIG    1       -0.800  -1.202   0.477  0.00  0.00    +0.030 A 
BRANCH  16  19
ATOM     19  S   LIG    1       -4.676   0.018   0.320  0.00  0.00    +0.056 S 
ATOM     20  O   LIG    1       -5.015   1.160   1.177  0.00  0.00    -0.153 OA
ATOM     21  O   LIG    1       -5.147  -1.334   0.640  0.00  0.00    -0.153 OA
BRANCH  19  22
ATOM     22  N   LIG    1       -5.216   0.400  -1.305  0.00  0.00    -0.204 NA
ATOM     23  H   LIG    1       -5.041  -0.336  -1.994  0.00  0.00    +0.144 HD
ATOM     24  H   LIG    1       -4.953   1.333  -1.632  0.00  0.00    +0.144 HD
ENDBRANCH  19  22
ENDBRANCH  16  19
ENDBRANCH   2  13
BRANCH   4  25
ATOM     25  C   LIG    1        4.374   1.502   0.853  0.00  0.00    +0.436 C 
ATOM     26  F   LIG    1        3.904   2.644   1.360  0.00  0.00    -0.164 F 
ATOM     27  F   LIG    1        5.236   1.821  -0.113  0.00  0.00    -0.164 F 
ATOM     28  F   LIG    1        5.058   0.886   1.816  0.00  0.00    -0.164 F 
ENDBRANCH   4  25
TORSDOF 5
