REMARK  Name = DB14972
REMARK                            x       y       z     vdW  Elec       q    Type
REMARK                         _______ _______ _______ _____ _____    ______ ____
ROOT
ATOM      1  P   LIG    1        1.772   0.043  -0.009  0.00  0.00    +0.325 P 
ATOM      2  O   LIG    1        2.251   0.830  -1.178  0.00  0.00    -0.261 OA
ENDROOT
BRANCH   1   3
ATOM      3  N   LIG    1        2.269   0.606   1.513  0.00  0.00    -0.251 NA
ATOM      4  H   LIG    1        3.207   0.385   1.849  0.00  0.00    +0.128 HD
ATOM      5  H   LIG    1        1.595   0.652   2.277  0.00  0.00    +0.128 HD
ENDBRANCH   1   3
BRANCH   1   7
ATOM      6  C   LIG    1       -0.619   1.174   0.187  0.00  0.00    +0.204 C 
ATOM      7  O   LIG    1        0.149  -0.017   0.138  0.00  0.00    -0.313 OA
ENDBRANCH   1   7
BRANCH   1   8
ATOM      8  S   LIG    1        2.300  -2.015  -0.126  0.00  0.00    -0.057 S 
ATOM      9  C   LIG    1        1.553  -2.422  -1.729  0.00  0.00    +0.096 C 
ENDBRANCH   1   8
TORSDOF 3
