REMARK  Name = DB14096
REMARK                            x       y       z     vdW  Elec       q    Type
REMARK                         _______ _______ _______ _____ _____    ______ ____
ROOT
ATOM      1  C   UNK    1        0.916   2.051   0.732  0.00  0.00    +0.240 C 
ENDROOT
BRANCH   1   2
ATOM      2  O   UNK    1       -0.490   1.874   0.548  0.00  0.00    -0.456 OA
BRANCH   2   3
ATOM      3  C   UNK    1       -1.349   2.919   0.550  0.00  0.00    +0.308 C 
ATOM      4  O   UNK    1       -1.043   4.107   0.671  0.00  0.00    -0.251 OA
BRANCH   3   5
ATOM      5  C   UNK    1       -2.810   2.473   0.423  0.00  0.00    +0.120 C 
BRANCH   5   6
ATOM      6  C   UNK    1       -3.779   3.187   1.391  0.00  0.00    +0.011 C 
BRANCH   6   7
ATOM      7  C   UNK    1       -3.531   2.869   2.879  0.00  0.00    +0.005 C 
BRANCH   7   8
ATOM      8  C   UNK    1       -4.524   3.573   3.819  0.00  0.00    +0.027 C 
BRANCH   8  10
ATOM      9  C   UNK    1       -5.081   2.586   6.136  0.00  0.00    -0.027 C 
ATOM     10  C   UNK    1       -4.276   3.250   5.284  0.00  0.00    -0.031 C 
BRANCH   9  11
ATOM     11  C   UNK    1       -6.456   1.998   5.864  0.00  0.00    +0.053 C 
BRANCH  11  13
ATOM     12  C   UNK    1       -8.425   3.436   6.677  0.00  0.00    -0.027 C 
ATOM     13  C   UNK    1       -7.508   2.466   6.854  0.00  0.00    -0.027 C 
BRANCH  12  14
ATOM     14  C   UNK    1       -8.611   4.320   5.457  0.00  0.00    +0.053 C 
BRANCH  14  16
ATOM     15  C   UNK    1      -10.068   3.655   3.433  0.00  0.00    -0.027 C 
ATOM     16  C   UNK    1       -9.907   4.048   4.712  0.00  0.00    -0.027 C 
BRANCH  15  17
ATOM     17  C   UNK    1       -8.998   3.383   2.388  0.00  0.00    +0.053 C 
BRANCH  17  19
ATOM     18  C   UNK    1       -8.109   5.303   0.911  0.00  0.00    -0.027 C 
ATOM     19  C   UNK    1       -9.032   4.376   1.237  0.00  0.00    -0.027 C 
BRANCH  18  20
ATOM     20  C   UNK    1       -6.803   5.608   1.627  0.00  0.00    +0.053 C 
BRANCH  20  22
ATOM     21  C   UNK    1       -6.284   7.782   2.915  0.00  0.00    -0.031 C 
ATOM     22  C   UNK    1       -6.525   7.094   1.781  0.00  0.00    -0.027 C 
BRANCH  21  24
ATOM     23  C   UNK    1       -7.257   7.904   5.266  0.00  0.00    +0.008 C 
ATOM     24  C   UNK    1       -6.224   7.252   4.339  0.00  0.00    +0.023 C 
ENDBRANCH  21  24
ENDBRANCH  20  22
ENDBRANCH  18  20
ENDBRANCH  17  19
ENDBRANCH  15  17
ENDBRANCH  14  16
ENDBRANCH  12  14
ENDBRANCH  11  13
ENDBRANCH   9  11
ENDBRANCH   8  10
ENDBRANCH   7   8
ENDBRANCH   6   7
ENDBRANCH   5   6
ENDBRANCH   3   5
ENDBRANCH   2   3
ENDBRANCH   1   2
BRANCH   1  25
ATOM     25  C   UNK    1        1.263   2.341   2.210  0.00  0.00    +0.220 C 
BRANCH  25  26
ATOM     26  O   UNK    1        2.671   2.416   2.358  0.00  0.00    -0.283 OA
BRANCH  26  27
ATOM     27  P   UNK    1        3.358   2.425   3.837  0.00  0.00    +0.475 P 
ATOM     28  O   UNK    1        4.844   2.495   3.838  0.00  0.00    -0.227 OA
BRANCH  27  29
ATOM     29  O   UNK    1        2.616   3.656   4.593  0.00  0.00    -0.302 OA
ATOM     30  H   UNK    1        3.206   4.311   5.016  0.00  0.00    +0.222 HD
ENDBRANCH  27  29
BRANCH  27  31
ATOM     31  O   UNK    1        2.724   1.108   4.563  0.00  0.00    -0.285 OA
BRANCH  31  32
ATOM     32  C   UNK    1        3.003  -0.195   4.070  0.00  0.00    +0.202 C 
BRANCH  32  33
ATOM     33  C   UNK    1        3.696  -1.041   5.159  0.00  0.00    +0.187 C 
BRANCH  33  34
ATOM     34  N   UNK    1        2.890  -1.179   6.386  0.00  0.00    -0.317 NA
ATOM     35  H   UNK    1        2.154  -1.857   6.252  0.00  0.00    +0.119 HD
ATOM     36  H   UNK    1        2.420  -0.307   6.590  0.00  0.00    +0.119 HD
ENDBRANCH  33  34
BRANCH  33  37
ATOM     37  C   UNK    1        5.099  -0.506   5.523  0.00  0.00    +0.324 C 
ATOM     38  O   UNK    1        5.347   0.138   6.543  0.00  0.00    -0.249 OA
BRANCH  37  39
ATOM     39  O   UNK    1        6.003  -0.814   4.548  0.00  0.00    -0.479 OA
ATOM     40  H   UNK    1        6.877  -0.469   4.743  0.00  0.00    +0.295 HD
ENDBRANCH  37  39
ENDBRANCH  33  37
ENDBRANCH  32  33
ENDBRANCH  31  32
ENDBRANCH  27  31
ENDBRANCH  26  27
ENDBRANCH  25  26
ENDBRANCH   1  25
BRANCH   1  41
ATOM     41  C   UNK    1        1.621   0.805   0.162  0.00  0.00    +0.279 C 
BRANCH  41  42
ATOM     42  O   UNK    1        1.428  -0.337   0.991  0.00  0.00    -0.461 OA
BRANCH  42  43
ATOM     43  C   UNK    1        1.780  -1.566   0.561  0.00  0.00    +0.307 C 
ATOM     44  O   UNK    1        2.239  -1.841  -0.549  0.00  0.00    -0.251 OA
BRANCH  43  45
ATOM     45  C   UNK    1        1.529  -2.651   1.615  0.00  0.00    +0.121 C 
BRANCH  45  46
ATOM     46  C   UNK    1        0.725  -3.865   1.102  0.00  0.00    +0.015 C 
BRANCH  46  47
ATOM     47  C   UNK    1       -0.761  -3.560   0.839  0.00  0.00    +0.027 C 
BRANCH  47  48
ATOM     48  C   UNK    1       -1.549  -4.785   0.401  0.00  0.00    -0.031 C 
ATOM     49  C   UNK    1       -2.166  -4.990  -0.779  0.00  0.00    -0.027 C 
BRANCH  49  50
ATOM     50  C   UNK    1       -2.215  -4.052  -1.972  0.00  0.00    +0.053 C 
BRANCH  50  51
ATOM     51  C   UNK    1       -3.578  -3.405  -2.159  0.00  0.00    -0.027 C 
ATOM     52  C   UNK    1       -4.360  -3.452  -3.255  0.00  0.00    -0.027 C 
BRANCH  52  53
ATOM     53  C   UNK    1       -4.036  -4.123  -4.580  0.00  0.00    +0.053 C 
BRANCH  53  54
ATOM     54  C   UNK    1       -4.633  -3.436  -5.795  0.00  0.00    -0.027 C 
ATOM     55  C   UNK    1       -4.180  -2.312  -6.382  0.00  0.00    -0.027 C 
BRANCH  55  56
ATOM     56  C   UNK    1       -3.008  -1.461  -5.926  0.00  0.00    +0.053 C 
BRANCH  56  57
ATOM     57  C   UNK    1       -1.751  -1.672  -6.753  0.00  0.00    -0.027 C 
ATOM     58  C   UNK    1       -0.565  -2.171  -6.348  0.00  0.00    -0.027 C 
BRANCH  58  59
ATOM     59  C   UNK    1       -0.176  -2.652  -4.960  0.00  0.00    +0.053 C 
BRANCH  59  60
ATOM     60  C   UNK    1        0.824  -1.736  -4.275  0.00  0.00    -0.027 C 
ATOM     61  C   UNK    1        0.593  -0.842  -3.294  0.00  0.00    -0.031 C 
BRANCH  61  62
ATOM     62  C   UNK    1       -0.732  -0.508  -2.625  0.00  0.00    +0.023 C 
ATOM     63  C   UNK    1       -1.158   0.950  -2.827  0.00  0.00    +0.008 C 
ENDBRANCH  61  62
ENDBRANCH  59  60
ENDBRANCH  58  59
ENDBRANCH  56  57
ENDBRANCH  55  56
ENDBRANCH  53  54
ENDBRANCH  52  53
ENDBRANCH  50  51
ENDBRANCH  49  50
ENDBRANCH  47  48
ENDBRANCH  46  47
ENDBRANCH  45  46
ENDBRANCH  43  45
ENDBRANCH  42  43
ENDBRANCH  41  42
ENDBRANCH   1  41
TORSDOF 42
