REMARK  Name = DB14193
REMARK                            x       y       z     vdW  Elec       q    Type
REMARK                         _______ _______ _______ _____ _____    ______ ____
ROOT
ATOM      1  N   LIG    1       -0.092  -0.167   0.001  0.00  0.00    -0.320 N 
ENDROOT
BRANCH   1   2
ATOM      2  C   LIG    1       -0.783  -1.374  -0.004  0.00  0.00    +0.106 C 
ATOM      3  S   LIG    1       -2.473  -1.468  -0.160  0.00  0.00    -0.028 S 
BRANCH   2   4
ATOM      4  S   LIG    1       -0.009  -2.879   0.147  0.00  0.00    -0.120 S 
ATOM      5  H   LIG    1       -0.938  -3.872   0.110  0.00  0.00    +0.109 HD
ENDBRANCH   2   4
ENDBRANCH   1   2
BRANCH   1   6
ATOM      6  C   LIG    1       -0.713   1.186   0.001  0.00  0.00    +0.102 C 
ATOM      7  C   LIG    1       -0.924   1.763  -1.410  0.00  0.00    +0.024 C 
ENDBRANCH   1   6
BRANCH   1   8
ATOM      8  C   LIG    1        1.390  -0.017   0.002  0.00  0.00    +0.102 C 
ATOM      9  C   LIG    1        1.995   0.090   1.412  0.00  0.00    +0.024 C 
ENDBRANCH   1   8
TORSDOF 4
