REMARK  Name = DB14518
REMARK                            x       y       z     vdW  Elec       q    Type
REMARK                         _______ _______ _______ _____ _____    ______ ____
ROOT
ATOM      1  C   LIG    1       -0.041  -0.015   0.000  0.00  0.00    +0.302 C 
ATOM      2  C   LIG    1        1.491  -0.004   0.000  0.00  0.00    +0.136 C 
ATOM      3  O   LIG    1       -0.618   1.095   0.000  0.00  0.00    -0.251 OA
ENDROOT
BRANCH   1   4
ATOM      4  O   LIG    1       -0.617  -1.126   0.000  0.00  0.00    -0.481 OA
ATOM      5  H   LIG    1       -1.338  -1.280   0.578  0.00  0.00    +0.295 HD
ENDBRANCH   1   4
TORSDOF 1
