REMARK  Name = DB14923
REMARK                            x       y       z     vdW  Elec       q    Type
REMARK                         _______ _______ _______ _____ _____    ______ ____
ROOT
ATOM      1  C   LIG    1       -2.699   3.304  -0.633  0.00  0.00    +0.121 A 
ATOM      2  C   LIG    1       -3.147   1.982  -0.460  0.00  0.00    +0.052 A 
ATOM      3  C   LIG    1       -2.228   0.930  -0.413  0.00  0.00    -0.006 A 
ATOM      4  C   LIG    1       -2.438  -0.553  -0.227  0.00  0.00    +0.076 C 
ATOM      5  C   LIG    1       -3.361  -1.137  -1.341  0.00  0.00    +0.023 C 
ATOM      6  C   LIG    1       -3.742  -2.623  -1.133  0.00  0.00    +0.033 C 
ATOM      7  C   LIG    1       -4.370  -2.849   0.260  0.00  0.00    +0.118 C 
ATOM      8  C   LIG    1       -3.438  -2.340   1.389  0.00  0.00    +0.033 C 
ATOM      9  C   LIG    1       -3.064  -0.854   1.169  0.00  0.00    +0.023 C 
ATOM     10  C   LIG    1       -1.010  -1.140  -0.319  0.00  0.00    +0.250 C 
ATOM     11  O   LIG    1       -0.679  -2.324  -0.270  0.00  0.00    -0.273 OA
ATOM     12  N   LIG    1       -0.149  -0.021  -0.448  0.00  0.00    -0.138 N 
ATOM     13  C   LIG    1       -0.870   1.176  -0.539  0.00  0.00    +0.064 A 
ATOM     14  C   LIG    1       -0.411   2.486  -0.703  0.00  0.00    +0.029 A 
ATOM     15  C   LIG    1       -1.326   3.538  -0.752  0.00  0.00    +0.047 A 
ENDROOT
BRANCH  12  16
ATOM     16  S   LIG    1        1.634  -0.111  -0.321  0.00  0.00    +0.085 S 
ATOM     17  O   LIG    1        2.184   0.755  -1.371  0.00  0.00    -0.149 OA
ATOM     18  O   LIG    1        2.034  -1.521  -0.242  0.00  0.00    -0.149 OA
BRANCH  16  19
ATOM     19  C   LIG    1        2.017   0.631   1.271  0.00  0.00    +0.151 A 
ATOM     20  C   LIG    1        1.507   0.077   2.455  0.00  0.00    +0.147 A 
ATOM     21  C   LIG    1        1.817   0.697   3.679  0.00  0.00    +0.060 A 
ATOM     22  C   LIG    1        2.617   1.847   3.736  0.00  0.00    +0.040 A 
ATOM     23  C   LIG    1        3.116   2.376   2.537  0.00  0.00    +0.015 A 
ATOM     24  C   LIG    1        2.817   1.775   1.318  0.00  0.00    +0.033 A 
BRANCH  22  25
ATOM     25  C   LIG    1        2.934   2.482   5.071  0.00  0.00    +0.245 C 
ATOM     26  N   LIG    1        3.197   3.806   5.049  0.00  0.00    -0.307 N 
ATOM     27  H   LIG    1        3.168   4.261   4.148  0.00  0.00    +0.150 HD
ATOM     28  O   LIG    1        2.920   1.809   6.104  0.00  0.00    -0.270 OA
BRANCH  26  29
ATOM     29  C   LIG    1        3.520   4.696   6.176  0.00  0.00    +0.026 C 
ATOM     30  C   LIG    1        2.352   4.764   7.191  0.00  0.00    +0.031 C 
ATOM     31  C   LIG    1        4.818   4.253   6.894  0.00  0.00    +0.031 C 
ATOM     32  C   LIG    1        3.744   6.110   5.598  0.00  0.00    +0.031 C 
ENDBRANCH  26  29
ENDBRANCH  22  25
BRANCH  20  33
ATOM     33  O   LIG    1        0.715  -1.051   2.349  0.00  0.00    -0.493 OA
ATOM     34  C   LIG    1        0.118  -1.610   3.514  0.00  0.00    +0.277 C 
ENDBRANCH  20  33
ENDBRANCH  16  19
ENDBRANCH  12  16
BRANCH   1  35
ATOM     35  O   LIG    1       -3.525   4.409  -0.694  0.00  0.00    -0.492 OA
BRANCH  35  37
ATOM     36  C   LIG    1       -5.615   5.598  -0.726  0.00  0.00    +0.048 C 
ATOM     37  C   LIG    1       -4.935   4.233  -0.584  0.00  0.00    +0.225 C 
ENDBRANCH  35  37
ENDBRANCH   1  35
BRANCH   7  38
ATOM     38  O   LIG    1       -4.688  -4.232   0.385  0.00  0.00    -0.375 OA
BRANCH  38  39
ATOM     39  C   LIG    1       -5.575  -4.583   1.444  0.00  0.00    +0.175 C 
BRANCH  39  40
ATOM     40  C   LIG    1       -5.822  -6.106   1.445  0.00  0.00    +0.112 C 
BRANCH  40  41
ATOM     41  N   LIG    1       -4.749  -6.893   2.068  0.00  0.00    -0.296 NA
ATOM     42  C   LIG    1       -3.446  -6.761   1.397  0.00  0.00    +0.112 C 
ATOM     43  C   LIG    1       -2.382  -7.695   2.011  0.00  0.00    +0.175 C 
ATOM     44  O   LIG    1       -2.855  -9.037   2.035  0.00  0.00    -0.377 OA
ATOM     45  C   LIG    1       -4.046  -9.172   2.801  0.00  0.00    +0.175 C 
ATOM     46  C   LIG    1       -5.163  -8.297   2.195  0.00  0.00    +0.112 C 
ENDBRANCH  40  41
ENDBRANCH  39  40
ENDBRANCH  38  39
ENDBRANCH   7  38
TORSDOF 11
