REMARK  Name = DB14754
REMARK                            x       y       z     vdW  Elec       q    Type
REMARK                         _______ _______ _______ _____ _____    ______ ____
ROOT
ATOM      1  C   LIG    1        0.045  -0.015  -0.162  0.00  0.00    +0.093 C 
ENDROOT
BRANCH   1   2
ATOM      2  N   LIG    1       -0.317  -0.538  -1.471  0.00  0.00    -0.324 NA
ATOM      3  H   LIG    1        0.129  -1.434  -1.608  0.00  0.00    +0.119 HD
ATOM      4  H   LIG    1        0.043   0.072  -2.191  0.00  0.00    +0.119 HD
ENDBRANCH   1   2
BRANCH   1   5
ATOM      5  C   LIG    1       -0.571   1.388   0.045  0.00  0.00    +0.057 C 
BRANCH   5   6
ATOM      6  C   LIG    1       -2.096   1.406   0.050  0.00  0.00    -0.046 A 
ATOM      7  C   LIG    1       -2.792   0.995   1.191  0.00  0.00    +0.004 A 
ATOM      8  C   LIG    1       -4.184   1.009   1.200  0.00  0.00    +0.000 A 
ATOM      9  C   LIG    1       -4.877   1.436   0.069  0.00  0.00    +0.000 A 
ATOM     10  C   LIG    1       -4.190   1.848  -1.072  0.00  0.00    +0.000 A 
ATOM     11  C   LIG    1       -2.797   1.833  -1.081  0.00  0.00    +0.004 A 
ENDBRANCH   5   6
ENDBRANCH   1   5
BRANCH   1  12
ATOM     12  C   LIG    1        1.580   0.007  -0.020  0.00  0.00    +0.252 C 
BRANCH  12  13
ATOM     13  O   LIG    1        2.109  -1.316  -0.039  0.00  0.00    -0.449 OA
BRANCH  13  14
ATOM     14  C   LIG    1        3.435  -1.529   0.061  0.00  0.00    +0.398 C 
ATOM     15  N   LIG    1        3.683  -2.882   0.022  0.00  0.00    -0.295 N 
ATOM     16  H   LIG    1        2.910  -3.526  -0.065  0.00  0.00    +0.148 HD
ATOM     17  H   LIG    1        4.635  -3.212   0.087  0.00  0.00    +0.148 HD
ATOM     18  O   LIG    1        4.294  -0.655   0.171  0.00  0.00    -0.227 OA
ENDBRANCH  13  14
ENDBRANCH  12  13
ENDBRANCH   1  12
TORSDOF 6
