REMARK  Name = DB14109
REMARK                            x       y       z     vdW  Elec       q    Type
REMARK                         _______ _______ _______ _____ _____    ______ ____
ROOT
ATOM      1  C   LIG    1       -0.143   0.121   0.061  0.00  0.00    +0.339 C 
ATOM      2  C   LIG    1       -0.546  -0.770  -1.124  0.00  0.00    +0.214 C 
ATOM      3  C   LIG    1       -0.130  -0.120  -2.464  0.00  0.00    +0.180 C 
ATOM      4  C   LIG    1       -0.625   1.341  -2.542  0.00  0.00    +0.177 C 
ATOM      5  C   LIG    1       -0.260   2.119  -1.252  0.00  0.00    +0.179 C 
ATOM      6  O   LIG    1       -0.710   1.400  -0.094  0.00  0.00    -0.331 OA
ENDROOT
BRANCH   2   7
ATOM      7  O   LIG    1       -0.058  -2.091  -0.976  0.00  0.00    -0.383 OA
ATOM      8  H   LIG    1       -0.113  -2.529  -1.829  0.00  0.00    +0.210 HD
ENDBRANCH   2   7
BRANCH   4   9
ATOM      9  O   LIG    1       -0.120   1.987  -3.699  0.00  0.00    -0.386 OA
ATOM     10  H   LIG    1        0.839   1.980  -3.658  0.00  0.00    +0.210 HD
ENDBRANCH   4   9
BRANCH   3  11
ATOM     11  O   LIG    1       -0.588  -0.884  -3.567  0.00  0.00    -0.386 OA
ATOM     12  H   LIG    1       -0.569  -0.330  -4.351  0.00  0.00    +0.210 HD
ENDBRANCH   3  11
BRANCH   1  13
ATOM     13  O   LIG    1        1.260   0.158   0.133  0.00  0.00    -0.461 OA
BRANCH  13  14
ATOM     14  C   LIG    1        1.893   0.702   1.236  0.00  0.00    +0.124 A 
ATOM     15  C   LIG    1        1.235   1.360   2.288  0.00  0.00    +0.049 A 
ATOM     16  C   LIG    1        1.963   1.884   3.352  0.00  0.00    +0.049 A 
ATOM     17  C   LIG    1        3.350   1.754   3.372  0.00  0.00    +0.117 A 
ATOM     18  C   LIG    1        4.014   1.106   2.333  0.00  0.00    +0.049 A 
ATOM     19  C   LIG    1        3.284   0.584   1.269  0.00  0.00    +0.049 A 
BRANCH  17  20
ATOM     20  O   LIG    1        4.067   2.268   4.420  0.00  0.00    -0.507 OA
ATOM     21  H   LIG    1        3.513   2.686   5.082  0.00  0.00    +0.292 HD
ENDBRANCH  17  20
ENDBRANCH  13  14
ENDBRANCH   1  13
BRANCH   5  22
ATOM     22  C   LIG    1       -0.886   3.530  -1.208  0.00  0.00    +0.190 C 
BRANCH  22  23
ATOM     23  O   LIG    1       -0.405   4.258  -0.095  0.00  0.00    -0.392 OA
ATOM     24  H   LIG    1       -0.822   5.123  -0.092  0.00  0.00    +0.210 HD
ENDBRANCH  22  23
ENDBRANCH   5  22
TORSDOF 8
