REMARK  Name = DB14768
REMARK                            x       y       z     vdW  Elec       q    Type
REMARK                         _______ _______ _______ _____ _____    ______ ____
ROOT
ATOM      1  C   LIG    1        1.768  -1.313  -0.298  0.00  0.00    +0.230 A 
ATOM      2  N   LIG    1        1.072  -2.461  -0.527  0.00  0.00    -0.179 NA
ATOM      3  C   LIG    1        1.773  -3.629  -0.548  0.00  0.00    +0.225 A 
ATOM      4  N   LIG    1        3.114  -3.767  -0.357  0.00  0.00    -0.196 NA
ATOM      5  C   LIG    1        3.757  -2.614  -0.138  0.00  0.00    +0.148 A 
ATOM      6  N   LIG    1        5.108  -2.446   0.084  0.00  0.00    -0.344 N 
ATOM      7  H   LIG    1        5.823  -3.159   0.115  0.00  0.00    +0.167 HD
ATOM      8  C   LIG    1        5.379  -1.109   0.265  0.00  0.00    +0.105 A 
ATOM      9  C   LIG    1        4.206  -0.385   0.164  0.00  0.00    +0.073 A 
ATOM     10 CL   LIG    1        3.950   1.310   0.300  0.00  0.00    -0.081 Cl
ATOM     11  C   LIG    1        3.155  -1.327  -0.092  0.00  0.00    +0.098 A 
ENDROOT
BRANCH   3  12
ATOM     12  N   LIG    1        1.088  -4.833  -0.776  0.00  0.00    -0.281 N 
ATOM     13  H   LIG    1        1.689  -5.642  -0.712  0.00  0.00    +0.155 HD
BRANCH  12  14
ATOM     14  C   LIG    1       -0.263  -4.998  -0.970  0.00  0.00    +0.071 A 
ATOM     15  C   LIG    1       -1.157  -4.242  -1.751  0.00  0.00    +0.157 A 
ATOM     16  N   LIG    1       -2.392  -4.688  -1.720  0.00  0.00    -0.178 NA
ATOM     17  N   LIG    1       -2.337  -5.756  -0.918  0.00  0.00    -0.273 N 
ATOM     18  C   LIG    1       -3.546  -6.517  -0.660  0.00  0.00    +0.172 C 
ATOM     19  C   LIG    1       -1.073  -5.992  -0.445  0.00  0.00    +0.131 A 
ENDBRANCH  12  14
ENDBRANCH   3  12
BRANCH   1  20
ATOM     20  O   LIG    1        1.129  -0.089  -0.262  0.00  0.00    -0.475 OA
BRANCH  20  21
ATOM     21  C   LIG    1       -0.279  -0.031  -0.489  0.00  0.00    +0.238 C 
BRANCH  21  23
ATOM     22  C   LIG    1       -2.232   1.648  -0.588  0.00  0.00    +0.143 C 
ATOM     23  C   LIG    1       -0.737   1.434  -0.398  0.00  0.00    +0.074 C 
ATOM     24  C   LIG    1       -0.128   2.353  -1.460  0.00  0.00    +0.117 C 
ATOM     25  N   LIG    1       -1.054   3.495  -1.476  0.00  0.00    -0.295 N 
ATOM     26  C   LIG    1       -0.677   4.717  -1.938  0.00  0.00    +0.239 C 
ATOM     27  O   LIG    1        0.451   4.911  -2.402  0.00  0.00    -0.271 OA
ATOM     28  C   LIG    1       -2.350   3.150  -0.869  0.00  0.00    +0.140 C 
BRANCH  22  30
ATOM     29  C   LIG    1       -4.345   1.336   0.507  0.00  0.00    +0.194 C 
ATOM     30  O   LIG    1       -2.931   1.209   0.574  0.00  0.00    -0.378 OA
ENDBRANCH  22  30
BRANCH  26  31
ATOM     31  C   LIG    1       -1.658   5.787  -1.866  0.00  0.00    +0.060 C 
ATOM     32  C   LIG    1       -1.424   7.023  -2.348  0.00  0.00    +0.013 C 
ENDBRANCH  26  31
ENDBRANCH  21  23
ENDBRANCH  20  21
ENDBRANCH   1  20
TORSDOF 7
