REMARK  Name = DB14069
REMARK                            x       y       z     vdW  Elec       q    Type
REMARK                         _______ _______ _______ _____ _____    ______ ____
ROOT
ATOM      1  C   LIG    1        1.584  -0.367   0.174  0.00  0.00    +0.139 A 
ATOM      2  N   LIG    1        2.336   0.709   0.222  0.00  0.00    -0.227 NA
ATOM      3  C   LIG    1        3.599   0.310   0.105  0.00  0.00    +0.097 A 
ATOM      4  C   LIG    1        3.674  -1.090   0.023  0.00  0.00    +0.074 A 
ATOM      5  N   LIG    1        2.361  -1.486   0.047  0.00  0.00    -0.337 N 
ATOM      6  H   LIG    1        2.029  -2.438   0.005  0.00  0.00    +0.167 HD
ENDROOT
BRANCH   1  10
ATOM      7  C   LIG    1       -2.719  -0.380   0.433  0.00  0.00    -0.025 A 
ATOM      8  C   LIG    1       -2.019  -1.572   0.206  0.00  0.00    +0.008 A 
ATOM      9  C   LIG    1       -0.629  -1.569   0.123  0.00  0.00    +0.012 A 
ATOM     10  C   LIG    1        0.088  -0.375   0.261  0.00  0.00    +0.017 A 
ATOM     11  C   LIG    1       -0.613   0.816   0.483  0.00  0.00    +0.012 A 
ATOM     12  C   LIG    1       -2.002   0.811   0.569  0.00  0.00    +0.008 A 
BRANCH   7  14
ATOM     13  C   LIG    1       -5.059  -1.344   0.344  0.00  0.00    +0.001 C 
ATOM     14  C   LIG    1       -4.194  -0.327   0.533  0.00  0.00    +0.006 C 
BRANCH  13  15
ATOM     15  C   LIG    1       -6.572  -1.262   0.467  0.00  0.00    +0.187 C 
BRANCH  15  16
ATOM     16  O   LIG    1       -7.003   0.033   0.872  0.00  0.00    -0.376 OA
BRANCH  16  18
ATOM     17  C   LIG    1       -8.744   1.571   1.474  0.00  0.00    +0.034 C 
ATOM     18  C   LIG    1       -8.410   0.144   1.030  0.00  0.00    +0.157 C 
ENDBRANCH  16  18
ENDBRANCH  15  16
ENDBRANCH  13  15
ENDBRANCH   7  14
ENDBRANCH   1  10
BRANCH   4  19
ATOM     19  C   LIG    1        4.800  -2.065  -0.044  0.00  0.00    +0.001 A 
ATOM     20  C   LIG    1        5.920  -1.896   0.772  0.00  0.00    +0.012 A 
ATOM     21  C   LIG    1        6.972  -2.806   0.716  0.00  0.00    +0.023 A 
ATOM     22  C   LIG    1        6.912  -3.899  -0.158  0.00  0.00    +0.027 A 
ATOM     23  C   LIG    1        5.787  -4.068  -0.969  0.00  0.00    +0.023 A 
ATOM     24  C   LIG    1        4.735  -3.157  -0.912  0.00  0.00    +0.012 A 
BRANCH  22  25
ATOM     25  N   LIG    1        7.936  -4.858  -0.265  0.00  0.00    -0.342 N 
ATOM     26  H   LIG    1        7.806  -5.634  -0.898  0.00  0.00    +0.146 HD
BRANCH  25  27
ATOM     27  C   LIG    1        9.176  -4.813   0.506  0.00  0.00    +0.064 C 
ATOM     28  C   LIG    1        9.816  -6.208   0.585  0.00  0.00    +0.027 C 
ATOM     29  C   LIG    1       10.172  -3.783  -0.060  0.00  0.00    +0.027 C 
ENDBRANCH  25  27
ENDBRANCH  22  25
ENDBRANCH   4  19
BRANCH   3  30
ATOM     30  C   LIG    1        4.707   1.323   0.085  0.00  0.00    +0.003 A 
ATOM     31  C   LIG    1        4.563   2.547   0.751  0.00  0.00    +0.012 A 
ATOM     32  C   LIG    1        5.582   3.494   0.719  0.00  0.00    +0.023 A 
ATOM     33  C   LIG    1        6.765   3.233   0.018  0.00  0.00    +0.027 A 
ATOM     34  C   LIG    1        6.910   2.016  -0.649  0.00  0.00    +0.023 A 
ATOM     35  C   LIG    1        5.888   1.070  -0.620  0.00  0.00    +0.012 A 
BRANCH  33  36
ATOM     36  N   LIG    1        7.831   4.147  -0.062  0.00  0.00    -0.342 N 
ATOM     37  H   LIG    1        8.640   3.897  -0.613  0.00  0.00    +0.146 HD
BRANCH  36  38
ATOM     38  C   LIG    1        7.819   5.467   0.564  0.00  0.00    +0.064 C 
ATOM     39  C   LIG    1        8.105   5.392   2.075  0.00  0.00    +0.027 C 
ATOM     40  C   LIG    1        8.810   6.410  -0.137  0.00  0.00    +0.027 C 
ENDBRANCH  36  38
ENDBRANCH  33  36
ENDBRANCH   3  30
TORSDOF 11
