REMARK  Name = DB14846
REMARK                            x       y       z     vdW  Elec       q    Type
REMARK                         _______ _______ _______ _____ _____    ______ ____
ROOT
ATOM      1  C   LIG    1        1.817   0.158  -0.125  0.00  0.00    +0.169 A 
ATOM      2  N   LIG    1        2.430  -0.912  -0.698  0.00  0.00    -0.194 NA
ATOM      3  C   LIG    1        3.777  -0.995  -0.507  0.00  0.00    +0.223 A 
ATOM      4  N   LIG    1        4.490  -0.098   0.235  0.00  0.00    -0.181 NA
ATOM      5  C   LIG    1        3.792   0.946   0.766  0.00  0.00    +0.223 A 
ATOM      6  N   LIG    1        2.445   1.100   0.626  0.00  0.00    -0.194 NA
ENDROOT
BRANCH   1  10
ATOM      7  C   LIG    1       -2.427   0.282  -0.500  0.00  0.00    +0.117 A 
ATOM      8  C   LIG    1       -1.724   1.444  -0.814  0.00  0.00    +0.056 A 
ATOM      9  C   LIG    1       -0.322   1.454  -0.721  0.00  0.00    +0.070 A 
ATOM     10  C   LIG    1        0.339   0.274  -0.296  0.00  0.00    +0.049 A 
ATOM     11  C   LIG    1       -0.461  -0.845  -0.016  0.00  0.00    +0.125 A 
ATOM     12  N   LIG    1       -1.812  -0.856  -0.108  0.00  0.00    -0.240 NA
BRANCH   9  13
ATOM     13  C   LIG    1        0.433   2.728  -1.136  0.00  0.00    +0.418 C 
ATOM     14  F   LIG    1        1.514   2.437  -1.862  0.00  0.00    -0.166 F 
ATOM     15  F   LIG    1        0.809   3.400  -0.048  0.00  0.00    -0.166 F 
ATOM     16  F   LIG    1       -0.325   3.541  -1.875  0.00  0.00    -0.166 F 
ENDBRANCH   9  13
BRANCH   7  17
ATOM     17  N   LIG    1       -3.817   0.261  -0.590  0.00  0.00    -0.343 N 
ATOM     18  H   LIG    1       -4.313  -0.589  -0.361  0.00  0.00    +0.144 HD
ATOM     19  H   LIG    1       -4.313   1.091  -0.880  0.00  0.00    +0.144 HD
ENDBRANCH   7  17
ENDBRANCH   1  10
BRANCH   3  20
ATOM     20  N   LIG    1        4.454  -2.100  -1.035  0.00  0.00    -0.295 N 
ATOM     21  C   LIG    1        5.931  -2.133  -1.113  0.00  0.00    +0.136 C 
ATOM     22  C   LIG    1        6.529  -3.537  -1.340  0.00  0.00    +0.179 C 
ATOM     23  O   LIG    1        5.914  -4.156  -2.456  0.00  0.00    -0.377 OA
ATOM     24  C   LIG    1        4.524  -4.336  -2.242  0.00  0.00    +0.179 C 
ATOM     25  C   LIG    1        3.834  -2.968  -2.058  0.00  0.00    +0.136 C 
ENDBRANCH   3  20
BRANCH   5  26
ATOM     26  N   LIG    1        4.481   1.865   1.565  0.00  0.00    -0.295 N 
ATOM     27  C   LIG    1        5.958   1.933   1.566  0.00  0.00    +0.136 C 
ATOM     28  C   LIG    1        6.559   2.680   2.775  0.00  0.00    +0.179 C 
ATOM     29  O   LIG    1        5.965   3.962   2.900  0.00  0.00    -0.377 OA
ATOM     30  C   LIG    1        4.570   3.864   3.129  0.00  0.00    +0.179 C 
ATOM     31  C   LIG    1        3.882   3.164   1.939  0.00  0.00    +0.136 C 
ENDBRANCH   5  26
TORSDOF 5
