REMARK  Name = DB14527
REMARK                            x       y       z     vdW  Elec       q    Type
REMARK                         _______ _______ _______ _____ _____    ______ ____
ROOT
ATOM      1  N   LIG    1       -0.193   0.632  -0.214  0.00  0.00    +0.168 N 
ATOM      2  O   LIG    1        0.521  -0.009   0.547  0.00  0.00    -0.094 OA
ENDROOT
BRANCH   1   3
ATOM      3  O   LIG    1       -1.038   1.396   0.237  0.00  0.00    -0.370 OA
ATOM      4  H   LIG    1       -1.584   1.886  -0.346  0.00  0.00    +0.332 HD
ENDBRANCH   1   3
BRANCH   1   5
ATOM      5  O   LIG    1       -0.061   0.510  -1.426  0.00  0.00    -0.370 OA
ATOM      6  H   LIG    1       -0.608   1.000  -2.008  0.00  0.00    +0.332 HD
ENDBRANCH   1   5
TORSDOF 2
