REMARK  Name = DB14191
REMARK                            x       y       z     vdW  Elec       q    Type
REMARK                         _______ _______ _______ _____ _____    ______ ____
ROOT
ATOM      1  C   LIG    1       -0.137   0.047  -0.000  0.00  0.00    +0.388 C 
ATOM      2  N   LIG    1       -1.030   0.937  -0.000  0.00  0.00    -0.129 NA
ATOM      3  H   LIG    1       -1.966   0.558  -0.000  0.00  0.00    +0.306 HD
ENDROOT
BRANCH   1   4
ATOM      4  N   LIG    1       -0.515  -1.329   0.000  0.00  0.00    -0.243 N 
ATOM      5  H   LIG    1       -1.515  -1.468   0.000  0.00  0.00    +0.265 HD
BRANCH   4   6
ATOM      6  C   LIG    1        0.170  -2.562   0.000  0.00  0.00    +0.100 A 
ATOM      7  C   LIG    1        1.567  -2.718   0.000  0.00  0.00    +0.042 A 
ATOM      8  C   LIG    1        2.137  -3.989   0.001  0.00  0.00    +0.003 A 
ATOM      9  C   LIG    1        1.320  -5.115   0.000  0.00  0.00    +0.000 A 
ATOM     10  C   LIG    1       -0.064  -4.980   0.000  0.00  0.00    +0.003 A 
ATOM     11  C   LIG    1       -0.632  -3.709   0.000  0.00  0.00    +0.042 A 
ENDBRANCH   4   6
ENDBRANCH   1   4
BRANCH   1  12
ATOM     12  N   LIG    1        1.264   0.313  -0.000  0.00  0.00    -0.243 N 
ATOM     13  H   LIG    1        1.838  -0.517   0.000  0.00  0.00    +0.265 HD
BRANCH  12  14
ATOM     14  C   LIG    1        2.030   1.492   0.000  0.00  0.00    +0.100 A 
ATOM     15  C   LIG    1        1.491   2.788   0.000  0.00  0.00    +0.042 A 
ATOM     16  C   LIG    1        2.328   3.900   0.001  0.00  0.00    +0.003 A 
ATOM     17  C   LIG    1        3.709   3.727   0.000  0.00  0.00    +0.000 A 
ATOM     18  C   LIG    1        4.260   2.448   0.000  0.00  0.00    +0.003 A 
ATOM     19  C   LIG    1        3.420   1.338   0.000  0.00  0.00    +0.042 A 
ENDBRANCH  12  14
ENDBRANCH   1  12
TORSDOF 4
