REMARK  Name = DB14887
REMARK                            x       y       z     vdW  Elec       q    Type
REMARK                         _______ _______ _______ _____ _____    ______ ____
ROOT
ATOM      1  C   LIG    1       -2.803  -0.107  -0.117  0.00  0.00    +0.037 A 
ATOM      2  C   LIG    1       -2.062  -1.298  -0.209  0.00  0.00    +0.024 A 
ATOM      3  C   LIG    1       -0.671  -1.268  -0.171  0.00  0.00    +0.006 A 
ATOM      4  C   LIG    1        0.004  -0.052  -0.028  0.00  0.00    -0.044 A 
ATOM      5  C   LIG    1       -0.730   1.133   0.084  0.00  0.00    +0.006 A 
ATOM      6  C   LIG    1       -2.120   1.104   0.050  0.00  0.00    +0.024 A 
ENDROOT
BRANCH   1  10
ATOM      7  C   LIG    1       -7.269  -1.879  -1.208  0.00  0.00    +0.135 A 
ATOM      8  C   LIG    1       -6.444  -0.745  -1.004  0.00  0.00    +0.138 A 
ATOM      9  C   LIG    1       -4.921  -0.848  -1.037  0.00  0.00    +0.259 C 
ATOM     10  N   LIG    1       -4.225  -0.090  -0.121  0.00  0.00    -0.264 N 
ATOM     11  C   LIG    1       -4.923   0.625   0.967  0.00  0.00    +0.155 C 
ATOM     12  C   LIG    1       -5.686   1.868   0.467  0.00  0.00    +0.250 C 
ATOM     13  O   LIG    1       -6.438   1.677  -0.727  0.00  0.00    -0.474 OA
ATOM     14  O   LIG    1       -4.407  -1.558  -1.906  0.00  0.00    -0.269 OA
ATOM     15  C   LIG    1       -7.116   0.488  -0.845  0.00  0.00    +0.232 A 
ATOM     16  N   LIG    1       -8.470   0.591  -0.868  0.00  0.00    -0.201 NA
ATOM     17  C   LIG    1       -9.159  -0.559  -1.051  0.00  0.00    +0.227 A 
ATOM     18  N   LIG    1       -8.623  -1.791  -1.224  0.00  0.00    -0.220 NA
BRANCH   7  19
ATOM     19  N   LIG    1       -6.769  -3.173  -1.381  0.00  0.00    -0.342 N 
ATOM     20  H   LIG    1       -7.414  -3.937  -1.525  0.00  0.00    +0.144 HD
ATOM     21  H   LIG    1       -5.770  -3.316  -1.419  0.00  0.00    +0.144 HD
ENDBRANCH   7  19
ENDBRANCH   1  10
BRANCH   4  22
ATOM     22  C   LIG    1        1.534  -0.015   0.001  0.00  0.00    +0.019 C 
ATOM     23  C   LIG    1        2.092   0.540   1.339  0.00  0.00    +0.008 C 
ATOM     24  C   LIG    1        3.632   0.630   1.320  0.00  0.00    +0.004 C 
ATOM     25  C   LIG    1        4.133   1.474   0.123  0.00  0.00    -0.000 C 
ATOM     26  C   LIG    1        3.663   0.782  -1.176  0.00  0.00    +0.004 C 
ATOM     27  C   LIG    1        2.124   0.699  -1.244  0.00  0.00    +0.008 C 
BRANCH  25  28
ATOM     28  C   LIG    1        5.681   1.656   0.126  0.00  0.00    +0.124 C 
BRANCH  28  29
ATOM     29  C   LIG    1        6.244   2.587   1.229  0.00  0.00    +0.305 C 
ATOM     30  O   LIG    1        7.435   2.396   1.564  0.00  0.00    -0.251 OA
BRANCH  29  31
ATOM     31  O   LIG    1        5.521   3.494   1.703  0.00  0.00    -0.481 OA
ATOM     32  H   LIG    1        5.857   4.061   2.370  0.00  0.00    +0.295 HD
ENDBRANCH  29  31
ENDBRANCH  28  29
ENDBRANCH  25  28
ENDBRANCH   4  22
TORSDOF 6
