REMARK  Name = DB14995
REMARK                            x       y       z     vdW  Elec       q    Type
REMARK                         _______ _______ _______ _____ _____    ______ ____
ROOT
ATOM      1  C   LIG    1        1.262   0.119  -0.080  0.00  0.00    +0.155 A 
ATOM      2  C   LIG    1        2.165  -0.867   0.429  0.00  0.00    +0.042 A 
ATOM      3  C   LIG    1        2.048  -2.124   1.044  0.00  0.00    +0.013 A 
ATOM      4  C   LIG    1        3.211  -2.793   1.424  0.00  0.00    +0.001 A 
ATOM      5  C   LIG    1        4.468  -2.235   1.204  0.00  0.00    +0.002 A 
ATOM      6  C   LIG    1        4.625  -0.990   0.592  0.00  0.00    +0.028 A 
ATOM      7  C   LIG    1        3.456  -0.322   0.205  0.00  0.00    +0.071 A 
ATOM      8  N   LIG    1        3.234   0.892  -0.422  0.00  0.00    -0.258 N 
ATOM      9  N   LIG    1        1.920   1.152  -0.557  0.00  0.00    -0.154 NA
ENDROOT
BRANCH   1  11
ATOM     10  C   LIG    1       -1.050   0.911  -0.271  0.00  0.00    +0.253 C 
ATOM     11  N   LIG    1       -0.118  -0.044  -0.043  0.00  0.00    -0.264 N 
ATOM     12  H   LIG    1       -0.447  -0.956   0.236  0.00  0.00    +0.157 HD
ATOM     13  O   LIG    1       -0.804   2.087  -0.545  0.00  0.00    -0.270 OA
BRANCH  10  19
ATOM     14  C   LIG    1       -3.875   2.703  -0.175  0.00  0.00    +0.087 C 
ATOM     15  C   LIG    1       -3.581   1.218  -0.145  0.00  0.00    +0.114 A 
ATOM     16  O   LIG    1       -4.677   0.415  -0.093  0.00  0.00    -0.467 OA
ATOM     17  C   LIG    1       -4.244  -0.867  -0.083  0.00  0.00    +0.196 A 
ATOM     18  C   LIG    1       -2.864  -0.895  -0.139  0.00  0.00    +0.054 A 
ATOM     19  C   LIG    1       -2.415   0.439  -0.167  0.00  0.00    +0.078 A 
ENDBRANCH  10  19
ENDBRANCH   1  11
BRANCH   8  20
ATOM     20  C   LIG    1        4.203   1.911  -0.817  0.00  0.00    +0.179 C 
BRANCH  20  21
ATOM     21  C   LIG    1        4.371   3.056   0.180  0.00  0.00    -0.026 A 
ATOM     22  C   LIG    1        4.434   2.810   1.556  0.00  0.00    +0.006 A 
ATOM     23  C   LIG    1        4.597   3.866   2.448  0.00  0.00    +0.013 A 
ATOM     24  C   LIG    1        4.703   5.178   1.975  0.00  0.00    +0.055 A 
ATOM     25  C   LIG    1        4.646   5.421   0.599  0.00  0.00    +0.013 A 
ATOM     26  C   LIG    1        4.484   4.365  -0.294  0.00  0.00    +0.006 A 
BRANCH  24  27
ATOM     27  C   LIG    1        4.882   6.346   2.945  0.00  0.00    +0.417 C 
ATOM     28  F   LIG    1        4.170   7.403   2.552  0.00  0.00    -0.166 F 
ATOM     29  F   LIG    1        6.170   6.687   2.979  0.00  0.00    -0.166 F 
ATOM     30  F   LIG    1        4.499   6.030   4.184  0.00  0.00    -0.166 F 
ENDBRANCH  24  27
ENDBRANCH  20  21
ENDBRANCH   8  20
TORSDOF 5
