REMARK  Name = DB14475
REMARK                            x       y       z     vdW  Elec       q    Type
REMARK                         _______ _______ _______ _____ _____    ______ ____
ROOT
ATOM      1  C   LIG    1       -0.040  -0.013  -0.110  0.00  0.00    +0.333 C 
ATOM      2  O   LIG    1       -0.751   0.924  -0.473  0.00  0.00    -0.248 OA
ENDROOT
BRANCH   1   3
ATOM      3  O   LIG    1       -0.514  -1.238   0.262  0.00  0.00    -0.479 OA
ATOM      4  H   LIG    1       -1.471  -1.287   0.216  0.00  0.00    +0.295 HD
ENDBRANCH   1   3
BRANCH   1   5
ATOM      5  C   LIG    1        1.500   0.036  -0.032  0.00  0.00    +0.219 C 
ATOM      6  C   LIG    1        2.015  -0.051   1.417  0.00  0.00    +0.049 C 
BRANCH   5   7
ATOM      7  O   LIG    1        1.969   1.247  -0.601  0.00  0.00    -0.381 OA
ATOM      8  H   LIG    1        1.698   1.277  -1.522  0.00  0.00    +0.210 HD
ENDBRANCH   5   7
ENDBRANCH   1   5
TORSDOF 3
