REMARK  Name = DB14194
REMARK                            x       y       z     vdW  Elec       q    Type
REMARK                         _______ _______ _______ _____ _____    ______ ____
ROOT
ATOM      1  N   LIG    1        0.044  -0.084  -0.092  0.00  0.00    -0.319 N 
ENDROOT
BRANCH   1   2
ATOM      2  C   LIG    1       -0.719  -1.232  -0.272  0.00  0.00    +0.106 C 
ATOM      3  S   LIG    1       -2.393  -1.189  -0.560  0.00  0.00    -0.028 S 
BRANCH   2   4
ATOM      4  S   LIG    1       -0.055  -2.796  -0.222  0.00  0.00    -0.120 S 
ATOM      5  H   LIG    1       -1.038  -3.712  -0.430  0.00  0.00    +0.109 HD
ENDBRANCH   2   4
ENDBRANCH   1   2
BRANCH   1   6
ATOM      6  C   LIG    1       -0.486   1.304  -0.013  0.00  0.00    +0.106 C 
BRANCH   6   7
ATOM      7  C   LIG    1       -0.531   2.027  -1.375  0.00  0.00    +0.019 C 
BRANCH   7   8
ATOM      8  C   LIG    1       -1.053   3.469  -1.260  0.00  0.00    -0.002 C 
ATOM      9  C   LIG    1       -1.103   4.196  -2.610  0.00  0.00    +0.004 C 
ENDBRANCH   7   8
ENDBRANCH   6   7
ENDBRANCH   1   6
BRANCH   1  10
ATOM     10  C   LIG    1        1.525  -0.042   0.053  0.00  0.00    +0.106 C 
BRANCH  10  11
ATOM     11  C   LIG    1        2.005  -0.099   1.518  0.00  0.00    +0.019 C 
BRANCH  11  12
ATOM     12  C   LIG    1        3.538  -0.046   1.637  0.00  0.00    -0.002 C 
ATOM     13  C   LIG    1        4.027  -0.071   3.091  0.00  0.00    +0.004 C 
ENDBRANCH  11  12
ENDBRANCH  10  11
ENDBRANCH   1  10
TORSDOF 8
