REMARK  Name = DB14969
REMARK                            x       y       z     vdW  Elec       q    Type
REMARK                         _______ _______ _______ _____ _____    ______ ____
ROOT
ATOM      1  N   LIG    1        1.377   0.000   0.237  0.00  0.00    -0.236 N 
ATOM      2  C   LIG    1        2.184   0.007  -0.869  0.00  0.00    +0.255 C 
ATOM      3  O   LIG    1        1.761   0.015  -2.027  0.00  0.00    -0.269 OA
ENDROOT
BRANCH   1   4
ATOM      4  C   LIG    1        1.889  -0.003   1.548  0.00  0.00    +0.042 A 
ATOM      5  C   LIG    1        2.142   1.209   2.197  0.00  0.00    +0.027 A 
ATOM      6  C   LIG    1        2.649   1.202   3.494  0.00  0.00    +0.040 A 
ATOM      7  C   LIG    1        2.894  -0.011   4.135  0.00  0.00    +0.124 A 
ATOM      8  F   LIG    1        3.386  -0.015   5.394  0.00  0.00    -0.205 F 
ATOM      9  C   LIG    1        2.634  -1.220   3.493  0.00  0.00    +0.040 A 
ATOM     10  C   LIG    1        2.127  -1.220   2.196  0.00  0.00    +0.027 A 
ENDBRANCH   1   4
BRANCH   2  11
ATOM     11  C   LIG    1        3.675   0.006  -0.662  0.00  0.00    +0.041 A 
ATOM     12  C   LIG    1        4.372   1.216  -0.568  0.00  0.00    +0.055 A 
ATOM     13  C   LIG    1        5.751   1.217  -0.357  0.00  0.00    +0.165 A 
ATOM     14  F   LIG    1        6.410   2.396  -0.263  0.00  0.00    -0.202 F 
ATOM     15  C   LIG    1        6.441   0.006  -0.241  0.00  0.00    +0.152 A 
ATOM     16  C   LIG    1        5.749  -1.202  -0.342  0.00  0.00    +0.049 A 
ATOM     17  C   LIG    1        4.370  -1.203  -0.554  0.00  0.00    +0.017 A 
BRANCH  15  18
ATOM     18  O   LIG    1        7.796  -0.005  -0.030  0.00  0.00    -0.504 OA
ATOM     19  H   LIG    1        8.159  -0.891   0.034  0.00  0.00    +0.292 HD
ENDBRANCH  15  18
ENDBRANCH   2  11
BRANCH   1  23
ATOM     20  C   LIG    1       -2.784  -0.002  -0.182  0.00  0.00    +0.117 A 
ATOM     21  C   LIG    1       -2.099   1.210  -0.100  0.00  0.00    +0.047 A 
ATOM     22  C   LIG    1       -0.714   1.214   0.038  0.00  0.00    +0.027 A 
ATOM     23  C   LIG    1       -0.021  -0.000   0.089  0.00  0.00    +0.042 A 
ATOM     24  C   LIG    1       -0.710  -1.215   0.012  0.00  0.00    +0.027 A 
ATOM     25  C   LIG    1       -2.096  -1.213  -0.125  0.00  0.00    +0.047 A 
BRANCH  20  26
ATOM     26  O   LIG    1       -4.147  -0.003  -0.318  0.00  0.00    -0.507 OA
ATOM     27  H   LIG    1       -4.520   0.880  -0.356  0.00  0.00    +0.292 HD
ENDBRANCH  20  26
ENDBRANCH   1  23
TORSDOF 5
