REMARK  Name = DB14930
REMARK                            x       y       z     vdW  Elec       q    Type
REMARK                         _______ _______ _______ _____ _____    ______ ____
ROOT
ATOM      1  C   LIG    1       -2.699   2.514  -0.116  0.00  0.00    +0.051 C 
ATOM      2  C   LIG    1       -1.949   1.192  -0.017  0.00  0.00    +0.030 A 
ATOM      3  C   LIG    1       -2.727  -0.029   0.190  0.00  0.00    +0.257 A 
ATOM      4  O   LIG    1       -3.952  -0.082   0.290  0.00  0.00    -0.267 OA
ATOM      5  N   LIG    1       -1.956  -1.154   0.265  0.00  0.00    -0.275 N 
ATOM      6  H   LIG    1       -2.469  -2.012   0.403  0.00  0.00    +0.173 HD
ATOM      7  C   LIG    1       -0.596  -1.301   0.173  0.00  0.00    +0.331 A 
ATOM      8  O   LIG    1       -0.098  -2.425   0.250  0.00  0.00    -0.246 OA
ATOM      9  N   LIG    1        0.081  -0.110  -0.013  0.00  0.00    -0.274 N 
ATOM     10  C   LIG    1       -0.606   1.081  -0.108  0.00  0.00    +0.101 A 
ENDROOT
BRANCH   9  11
ATOM     11  C   LIG    1        1.533  -0.118  -0.154  0.00  0.00    +0.227 C 
ATOM     12  O   LIG    1        2.120   0.806   0.716  0.00  0.00    -0.348 OA
ATOM     13  C   LIG    1        3.383   1.264   0.230  0.00  0.00    +0.180 C 
ATOM     14  C   LIG    1        3.513   0.583  -1.139  0.00  0.00    +0.201 C 
ATOM     15  F   LIG    1        4.207  -0.548  -0.986  0.00  0.00    -0.243 F 
ATOM     16  C   LIG    1        2.089   0.220  -1.530  0.00  0.00    +0.094 C 
BRANCH  13  17
ATOM     17  C   LIG    1        3.333   2.803   0.151  0.00  0.00    +0.190 C 
BRANCH  17  18
ATOM     18  O   LIG    1        3.228   3.372   1.440  0.00  0.00    -0.392 OA
ATOM     19  H   LIG    1        3.203   4.328   1.353  0.00  0.00    +0.210 HD
ENDBRANCH  17  18
ENDBRANCH  13  17
ENDBRANCH   9  11
TORSDOF 3
