REMARK  Name = DB14542
REMARK                            x       y       z     vdW  Elec       q    Type
REMARK                         _______ _______ _______ _____ _____    ______ ____
ROOT
ATOM      1  C   LIG    1       -4.032  -2.582   1.328  0.00  0.00    +0.008 C 
ATOM      2  C   LIG    1       -4.793  -3.445   2.351  0.00  0.00    +0.032 C 
ATOM      3  C   LIG    1       -4.805  -2.690   3.678  0.00  0.00    -0.060 C 
ATOM      4  C   LIG    1       -3.395  -2.442   4.283  0.00  0.00    -0.005 C 
ATOM      5  C   LIG    1       -2.707  -3.819   4.531  0.00  0.00    +0.016 C 
ATOM      6  C   LIG    1       -2.644  -1.529   3.228  0.00  0.00    +0.031 C 
ATOM      7  C   LIG    1       -1.238  -0.974   3.666  0.00  0.00    +0.119 C 
ATOM      8  C   LIG    1       -0.578  -0.110   2.552  0.00  0.00    +0.041 C 
ATOM      9  C   LIG    1       -0.491  -0.815   1.161  0.00  0.00    +0.009 C 
ATOM     10  C   LIG    1        0.470  -2.054   1.213  0.00  0.00    +0.015 C 
ATOM     11  C   LIG    1       -0.159   0.114  -0.072  0.00  0.00    +0.132 C 
ATOM     12  C   LIG    1       -0.769  -0.669  -1.279  0.00  0.00    +0.043 C 
ATOM     13  C   LIG    1       -1.911  -1.537  -0.709  0.00  0.00    +0.008 C 
ATOM     14  C   LIG    1       -1.948  -1.198   0.788  0.00  0.00    +0.002 C 
ATOM     15  C   LIG    1       -3.548  -1.759   5.687  0.00  0.00    +0.019 C 
ATOM     16  C   LIG    1       -4.670  -0.711   5.797  0.00  0.00    +0.080 C 
ATOM     17  C   LIG    1       -6.009  -1.310   5.357  0.00  0.00    +0.156 C 
ATOM     18  O   LIG    1       -7.076  -0.986   5.874  0.00  0.00    -0.293 OA
ATOM     19  C   LIG    1       -5.948  -2.178   4.191  0.00  0.00    +0.046 C 
ATOM     20  C   LIG    1       -2.609  -2.181   1.794  0.00  0.00    -0.001 C 
ENDROOT
BRANCH   7  21
ATOM     21  O   LIG    1       -0.343  -1.962   4.137  0.00  0.00    -0.391 OA
ATOM     22  H   LIG    1       -0.754  -2.416   4.877  0.00  0.00    +0.210 HD
ENDBRANCH   7  21
BRANCH  11  23
ATOM     23  C   LIG    1        1.365   0.402  -0.245  0.00  0.00    +0.191 C 
ATOM     24  O   LIG    1        2.040  -0.179  -1.097  0.00  0.00    -0.292 OA
BRANCH  23  25
ATOM     25  C   LIG    1        2.040   1.385   0.730  0.00  0.00    +0.249 C 
BRANCH  25  26
ATOM     26  O   LIG    1        3.345   1.742   0.297  0.00  0.00    -0.279 OA
BRANCH  26  27
ATOM     27  P   LIG    1        3.569   3.047  -0.657  0.00  0.00    +0.473 P 
ATOM     28  O   LIG    1        2.965   4.315  -0.166  0.00  0.00    -0.228 OA
BRANCH  27  29
ATOM     29  O   LIG    1        5.181   3.082  -0.848  0.00  0.00    -0.303 OA
ATOM     30  H   LIG    1        5.615   3.927  -0.623  0.00  0.00    +0.222 HD
ENDBRANCH  27  29
BRANCH  27  31
ATOM     31  O   LIG    1        3.040   2.547  -2.109  0.00  0.00    -0.303 OA
ATOM     32  H   LIG    1        2.330   3.083  -2.510  0.00  0.00    +0.222 HD
ENDBRANCH  27  31
ENDBRANCH  26  27
ENDBRANCH  25  26
ENDBRANCH  23  25
ENDBRANCH  11  23
BRANCH  11  33
ATOM     33  O   LIG    1       -0.764   1.400   0.007  0.00  0.00    -0.380 OA
ATOM     34  H   LIG    1       -1.717   1.285   0.037  0.00  0.00    +0.211 HD
ENDBRANCH  11  33
TORSDOF 8
