REMARK  Name = DB14733
REMARK                            x       y       z     vdW  Elec       q    Type
REMARK                         _______ _______ _______ _____ _____    ______ ____
ROOT
ATOM      1  CA  LIG    1       -1.183  -0.017   0.129  0.00  0.00    +0.126 C 
ATOM      2  C   LIG    1       -0.386  -0.894  -0.569  0.00  0.00    -0.009 C 
ATOM      3  C   LIG    1       -1.027  -1.896  -1.555  0.00  0.00    +0.108 C 
ATOM      4  S   LIG    1       -2.557  -1.276  -2.339  0.00  0.00    -0.131 S 
ATOM      5  C   LIG    1       -3.376  -0.962  -0.748  0.00  0.00    +0.169 C 
ATOM      6  CA  LIG    1       -4.567   0.023  -0.607  0.00  0.00    +0.191 C 
ATOM      7  C   LIG    1       -3.633   0.837   0.333  0.00  0.00    +0.244 C 
ATOM      8  O   LIG    1       -3.762   1.839   1.035  0.00  0.00    -0.273 OA
ATOM      9  N   LIG    1       -2.553   0.002   0.011  0.00  0.00    -0.249 N 
ENDROOT
BRANCH   2  10
ATOM     10  C   LIG    1        1.084  -0.856  -0.500  0.00  0.00    +0.015 C 
ATOM     11  C   LIG    1        1.926  -1.903  -0.684  0.00  0.00    +0.016 C 
ATOM     12  C   LIG    1        3.353  -1.680  -0.520  0.00  0.00    +0.243 C 
ATOM     13  O   LIG    1        3.957  -0.605  -0.489  0.00  0.00    -0.270 OA
ATOM     14  N   LIG    1        3.902  -2.912  -0.384  0.00  0.00    -0.293 N 
ATOM     15  C   LIG    1        2.939  -4.003  -0.364  0.00  0.00    +0.113 C 
ATOM     16  C   LIG    1        1.667  -3.376  -0.877  0.00  0.00    +0.059 C 
BRANCH  14  17
ATOM     17  C   LIG    1        5.350  -3.091  -0.146  0.00  0.00    +0.095 C 
ATOM     18  C   LIG    1        6.122  -3.234  -1.452  0.00  0.00    +0.043 C 
ATOM     19  C   LIG    1        6.110  -4.733  -1.758  0.00  0.00    +0.113 C 
ATOM     20  N   LIG    1        5.990  -5.348  -0.432  0.00  0.00    -0.266 N 
ATOM     21  C   LIG    1        6.135  -6.724  -0.235  0.00  0.00    +0.403 C 
ATOM     22  O   LIG    1        6.354  -7.546  -1.129  0.00  0.00    -0.226 OA
ATOM     23  C   LIG    1        5.728  -4.363   0.627  0.00  0.00    +0.133 C 
BRANCH  21  24
ATOM     24  O   LIG    1        6.006  -7.053   1.076  0.00  0.00    -0.442 OA
BRANCH  24  25
ATOM     25  C   LIG    1        6.122  -8.405   1.503  0.00  0.00    +0.311 C 
BRANCH  25  26
ATOM     26  C   LIG    1        5.945  -8.547   3.003  0.00  0.00    +0.187 A 
ATOM     27  C   LIG    1        5.758  -7.724   4.035  0.00  0.00    +0.151 A 
ATOM     28  C   LIG    1        5.648  -6.225   4.221  0.00  0.00    +0.090 C 
ATOM     29  O   LIG    1        5.665  -8.451   5.155  0.00  0.00    -0.396 OA
ATOM     30  C   LIG    1        5.793  -9.746   4.798  0.00  0.00    +0.521 A 
ATOM     31  O   LIG    1        5.758 -10.709   5.562  0.00  0.00    -0.202 OA
ATOM     32  O   LIG    1        5.965  -9.805   3.461  0.00  0.00    -0.392 OA
ENDBRANCH  25  26
ENDBRANCH  24  25
ENDBRANCH  21  24
ENDBRANCH  14  17
ENDBRANCH   2  10
BRANCH   6  33
ATOM     33  N   LIG    1       -4.936   0.777  -1.809  0.00  0.00    -0.296 N 
ATOM     34  H   LIG    1       -4.188   1.294  -2.250  0.00  0.00    +0.150 HD
ATOM     35  C   LIG    1       -6.140   0.772  -2.408  0.00  0.00    +0.270 C 
ATOM     36  O   LIG    1       -7.127   0.169  -1.983  0.00  0.00    -0.268 OA
BRANCH  35  37
ATOM     37  C   LIG    1       -6.181   1.585  -3.639  0.00  0.00    +0.208 C 
ATOM     38  N   LIG    1       -6.823   2.709  -3.687  0.00  0.00    -0.078 NA
BRANCH  37  39
ATOM     39  C   LIG    1       -5.467   1.087  -4.851  0.00  0.00    +0.197 A 
ATOM     40  N   LIG    1       -5.385   1.857  -5.931  0.00  0.00    -0.202 NA
ATOM     41  C   LIG    1       -4.725   1.246  -6.871  0.00  0.00    +0.176 A 
ATOM     42  S   LIG    1       -4.197  -0.327  -6.414  0.00  0.00    +0.049 S 
ATOM     43  N   LIG    1       -4.916  -0.123  -4.874  0.00  0.00    -0.185 NA
BRANCH  41  44
ATOM     44  N   LIG    1       -4.451   1.751  -8.108  0.00  0.00    -0.336 N 
ATOM     45  H   LIG    1       -3.928   1.225  -8.793  0.00  0.00    +0.144 HD
ATOM     46  H   LIG    1       -4.762   2.673  -8.380  0.00  0.00    +0.144 HD
ENDBRANCH  41  44
ENDBRANCH  37  39
BRANCH  38  47
ATOM     47  O   LIG    1       -7.465   3.165  -2.507  0.00  0.00    -0.409 OA
ATOM     48  H   LIG    1       -7.862   3.989  -2.801  0.00  0.00    +0.328 HD
ENDBRANCH  38  47
ENDBRANCH  35  37
ENDBRANCH   6  33
BRANCH   1  49
ATOM     49  C   LIG    1       -0.615   0.948   1.063  0.00  0.00    +0.352 C 
ATOM     50  OXT LIG    1       -0.714   2.168   0.945  0.00  0.00    -0.244 OA
BRANCH  49  51
ATOM     51  O   LIG    1        0.005   0.340   2.118  0.00  0.00    -0.476 OA
ATOM     52  H   LIG    1        0.364   0.974   2.743  0.00  0.00    +0.295 HD
ENDBRANCH  49  51
ENDBRANCH   1  49
TORSDOF 12
