REMARK  Name = DB14881
REMARK                            x       y       z     vdW  Elec       q    Type
REMARK                         _______ _______ _______ _____ _____    ______ ____
ROOT
ATOM      1  C   LIG    1       -1.526   1.292  -0.092  0.00  0.00    +0.019 C 
ATOM      2  C   LIG    1       -2.202   2.708  -0.061  0.00  0.00    +0.048 C 
ATOM      3  C   LIG    1       -2.268   3.424   1.320  0.00  0.00    +0.070 C 
ATOM      4  C   LIG    1       -0.959   4.063   1.867  0.00  0.00    +0.035 C 
ATOM      5  C   LIG    1       -1.307   5.484   2.341  0.00  0.00    +0.003 C 
ATOM      6  C   LIG    1       -2.830   5.526   2.438  0.00  0.00    +0.003 C 
ATOM      7  C   LIG    1       -3.275   4.593   1.315  0.00  0.00    +0.035 C 
ATOM      8  O   LIG    1       -2.814   2.543   2.311  0.00  0.00    -0.373 OA
ATOM      9  C   LIG    1       -2.188   1.267   2.437  0.00  0.00    +0.161 C 
ATOM     10  C   LIG    1       -2.218   0.525   1.084  0.00  0.00    +0.041 C 
ENDROOT
BRANCH   1  11
ATOM     11  C   LIG    1       -1.811   0.634  -1.469  0.00  0.00    +0.048 A 
ATOM     12  C   LIG    1       -2.330  -0.665  -1.610  0.00  0.00    +0.024 A 
ATOM     13  C   LIG    1       -2.504  -1.192  -2.891  0.00  0.00    +0.003 A 
ATOM     14  C   LIG    1       -2.156  -0.428  -4.004  0.00  0.00    +0.020 A 
ATOM     15  C   LIG    1       -1.639   0.849  -3.796  0.00  0.00    +0.111 A 
ATOM     16  N   LIG    1       -1.462   1.378  -2.559  0.00  0.00    -0.259 NA
ENDBRANCH   1  11
BRANCH   1  17
ATOM     17  C   LIG    1        0.009   1.417   0.178  0.00  0.00    +0.028 C 
BRANCH  17  18
ATOM     18  C   LIG    1        0.788   0.091   0.055  0.00  0.00    +0.082 C 
BRANCH  18  19
ATOM     19  N   LIG    1        2.222   0.330   0.170  0.00  0.00    -0.311 NA
ATOM     20  H   LIG    1        2.430   0.746   1.066  0.00  0.00    +0.122 HD
BRANCH  19  21
ATOM     21  C   LIG    1        2.998  -0.895  -0.001  0.00  0.00    +0.127 C 
BRANCH  21  22
ATOM     22  C   LIG    1        2.911  -1.458  -1.410  0.00  0.00    +0.045 A 
ATOM     23  C   LIG    1        2.272  -2.625  -1.845  0.00  0.00    +0.131 A 
ATOM     24  C   LIG    1        2.378  -2.817  -3.239  0.00  0.00    +0.053 A 
ATOM     25  C   LIG    1        3.083  -1.813  -3.874  0.00  0.00    +0.049 A 
ATOM     26  S   LIG    1        3.624  -0.612  -2.760  0.00  0.00    -0.097 S 
BRANCH  23  27
ATOM     27  O   LIG    1        1.623  -3.438  -0.944  0.00  0.00    -0.494 OA
ATOM     28  C   LIG    1        0.909  -4.548  -1.476  0.00  0.00    +0.277 C 
ENDBRANCH  23  27
ENDBRANCH  21  22
ENDBRANCH  19  21
ENDBRANCH  18  19
ENDBRANCH  17  18
ENDBRANCH   1  17
TORSDOF 7
