REMARK  Name = DB14913
REMARK                            x       y       z     vdW  Elec       q    Type
REMARK                         _______ _______ _______ _____ _____    ______ ____
ROOT
ATOM      1  C   LIG    1        1.543  -0.012  -0.273  0.00  0.00    +0.260 C 
ATOM      2  C   LIG    1        2.059   0.366  -1.655  0.00  0.00    +0.246 C 
ATOM      3  F   LIG    1        1.425   1.446  -2.123  0.00  0.00    -0.238 F 
ATOM      4  C   LIG    1        3.497   0.733  -1.305  0.00  0.00    +0.184 C 
ATOM      5  C   LIG    1        3.402   1.355   0.102  0.00  0.00    +0.178 C 
ATOM      6  O   LIG    1        2.148   0.894   0.604  0.00  0.00    -0.345 OA
ENDROOT
BRANCH   1  15
ATOM      7  C   LIG    1       -2.741   2.452   0.456  0.00  0.00    +0.051 C 
ATOM      8  C   LIG    1       -1.962   1.162   0.234  0.00  0.00    +0.030 A 
ATOM      9  C   LIG    1       -2.712  -0.090   0.145  0.00  0.00    +0.257 A 
ATOM     10  O   LIG    1       -3.934  -0.195   0.250  0.00  0.00    -0.267 OA
ATOM     11  N   LIG    1       -1.919  -1.179  -0.077  0.00  0.00    -0.275 N 
ATOM     12  H   LIG    1       -2.413  -2.056  -0.156  0.00  0.00    +0.173 HD
ATOM     13  C   LIG    1       -0.558  -1.267  -0.220  0.00  0.00    +0.331 A 
ATOM     14  O   LIG    1       -0.035  -2.358  -0.450  0.00  0.00    -0.246 OA
ATOM     15  N   LIG    1        0.095  -0.055  -0.094  0.00  0.00    -0.271 N 
ATOM     16  C   LIG    1       -0.618   1.108   0.109  0.00  0.00    +0.102 A 
ENDBRANCH   1  15
BRANCH   4  17
ATOM     17  O   LIG    1        4.353  -0.396  -1.341  0.00  0.00    -0.386 OA
ATOM     18  H   LIG    1        5.201  -0.149  -0.965  0.00  0.00    +0.210 HD
ENDBRANCH   4  17
BRANCH   5  19
ATOM     19  C   LIG    1        3.352   2.895   0.133  0.00  0.00    +0.190 C 
BRANCH  19  20
ATOM     20  O   LIG    1        4.630   3.439  -0.128  0.00  0.00    -0.392 OA
ATOM     21  H   LIG    1        4.569   4.396  -0.090  0.00  0.00    +0.210 HD
ENDBRANCH  19  20
ENDBRANCH   5  19
TORSDOF 4
