REMARK  Name = DB14015
REMARK                            x       y       z     vdW  Elec       q    Type
REMARK                         _______ _______ _______ _____ _____    ______ ____
ROOT
ATOM      1  O   LIG    1       -0.391   1.337   0.219  0.00  0.00    -0.137 OA
ATOM      2  S   LIG    1        0.061  -0.081  -0.134  0.00  0.00    +0.137 S 
ENDROOT
BRANCH   2   3
ATOM      3  O   LIG    1        1.690  -0.144  -0.328  0.00  0.00    -0.246 OA
ATOM      4  H   LIG    1        2.076  -0.651   0.389  0.00  0.00    +0.245 HD
ENDBRANCH   2   3
BRANCH   2   5
ATOM      5  O   LIG    1       -0.649  -0.893  -1.219  0.00  0.00    -0.246 OA
ATOM      6  H   LIG    1       -1.608  -0.842  -1.086  0.00  0.00    +0.245 HD
ENDBRANCH   2   5
TORSDOF 2
