REMARK  Name = DB14979
REMARK                            x       y       z     vdW  Elec       q    Type
REMARK                         _______ _______ _______ _____ _____    ______ ____
ROOT
ATOM      1  C   LIG    1        2.736   0.498   0.496  0.00  0.00    -0.043 C 
ENDROOT
BRANCH   1   2
ATOM      2  C   LIG    1        2.731  -0.576   1.580  0.00  0.00    -0.064 A 
ATOM      3  C   LIG    1        2.695  -0.211   2.927  0.00  0.00    +0.002 A 
ATOM      4  C   LIG    1        2.716  -1.191   3.916  0.00  0.00    +0.008 A 
ATOM      5  C   LIG    1        2.785  -2.544   3.572  0.00  0.00    -0.025 A 
ATOM      6  C   LIG    1        2.841  -2.903   2.220  0.00  0.00    +0.008 A 
ATOM      7  C   LIG    1        2.820  -1.925   1.230  0.00  0.00    +0.002 A 
BRANCH   5   8
ATOM      8  C   LIG    1        2.813  -3.548   4.657  0.00  0.00    +0.013 C 
ATOM      9  C   LIG    1        3.168  -4.846   4.535  0.00  0.00    +0.070 C 
BRANCH   9  10
ATOM     10  C   LIG    1        3.156  -5.766   5.651  0.00  0.00    +0.259 C 
ATOM     11  N   LIG    1        3.571  -7.001   5.314  0.00  0.00    -0.194 N 
ATOM     12  H   LIG    1        3.840  -7.347   4.404  0.00  0.00    +0.183 HD
ATOM     13  O   LIG    1        2.805  -5.445   6.791  0.00  0.00    -0.269 OA
BRANCH  11  14
ATOM     14  O   LIG    1        3.579  -7.991   6.302  0.00  0.00    -0.295 OA
ATOM     15  H   LIG    1        2.843  -8.556   6.055  0.00  0.00    +0.241 HD
ENDBRANCH  11  14
ENDBRANCH   9  10
ENDBRANCH   5   8
ENDBRANCH   1   2
BRANCH   1  17
ATOM     16  C   LIG    1        0.585   1.738   1.185  0.00  0.00    -0.096 C 
ATOM     17  N   LIG    1        1.348   1.024   0.051  0.00  0.00    +0.381 N 
ATOM     18  H   LIG    1        1.541   1.743  -0.632  0.00  0.00    -0.082 HD
BRANCH  17  19
ATOM     19  C   LIG    1        0.474  -0.019  -0.697  0.00  0.00    -0.072 C 
BRANCH  19  20
ATOM     20  C   LIG    1        0.357   0.295  -2.216  0.00  0.00    -0.043 C 
ATOM     21  C   LIG    1       -0.542  -0.783  -2.891  0.00  0.00    +0.008 C 
ATOM     22  C   LIG    1       -0.718  -0.540  -4.414  0.00  0.00    -0.010 C 
ATOM     23  C   LIG    1       -1.342   0.867  -4.610  0.00  0.00    +0.007 C 
ATOM     24  C   LIG    1       -0.464   1.986  -3.989  0.00  0.00    -0.010 C 
ATOM     25  C   LIG    1        0.938   1.925  -4.653  0.00  0.00    +0.007 C 
ATOM     26  C   LIG    1        1.616   0.542  -4.459  0.00  0.00    -0.010 C 
ATOM     27  C   LIG    1        0.689  -0.542  -5.069  0.00  0.00    +0.007 C 
ATOM     28  C   LIG    1       -0.298   1.687  -2.475  0.00  0.00    +0.008 C 
ATOM     29  C   LIG    1        1.742   0.274  -2.935  0.00  0.00    +0.008 C 
ENDBRANCH  19  20
ENDBRANCH  17  19
ENDBRANCH   1  17
TORSDOF 7
