REMARK  Name = DB14627
REMARK                            x       y       z     vdW  Elec       q    Type
REMARK                         _______ _______ _______ _____ _____    ______ ____
ROOT
ATOM      1  O   LIG    1       -0.552  -1.708  -1.786  0.00  0.00    -0.274 OA
ATOM      2  C   LIG    1       -0.689  -0.570  -1.336  0.00  0.00    +0.237 C 
ATOM      3  C   LIG    1       -0.045  -0.012  -0.033  0.00  0.00    +0.124 C 
ATOM      4  C   LIG    1       -0.576   1.409  -0.037  0.00  0.00    -0.003 A 
ATOM      5  C   LIG    1       -0.374   2.476   0.847  0.00  0.00    +0.007 A 
ATOM      6  C   LIG    1       -0.984   3.708   0.597  0.00  0.00    +0.000 A 
ATOM      7  C   LIG    1       -1.790   3.877  -0.533  0.00  0.00    +0.002 A 
ATOM      8  C   LIG    1       -1.987   2.815  -1.419  0.00  0.00    +0.023 A 
ATOM      9  C   LIG    1       -1.371   1.593  -1.153  0.00  0.00    +0.038 A 
ATOM     10  N   LIG    1       -1.417   0.421  -1.883  0.00  0.00    -0.284 N 
ATOM     11  H   LIG    1       -1.938   0.313  -2.740  0.00  0.00    +0.155 HD
ENDROOT
BRANCH   3  12
ATOM     12  C   LIG    1       -0.572  -0.896   1.135  0.00  0.00    -0.024 A 
ATOM     13  C   LIG    1       -1.621  -0.476   1.968  0.00  0.00    +0.009 A 
ATOM     14  C   LIG    1       -2.077  -1.289   3.002  0.00  0.00    +0.047 A 
ATOM     15  C   LIG    1       -1.500  -2.543   3.212  0.00  0.00    +0.132 A 
ATOM     16  C   LIG    1       -0.453  -2.972   2.397  0.00  0.00    +0.047 A 
ATOM     17  C   LIG    1        0.001  -2.158   1.363  0.00  0.00    +0.009 A 
BRANCH  15  18
ATOM     18  O   LIG    1       -1.925  -3.348   4.246  0.00  0.00    -0.426 OA
BRANCH  18  19
ATOM     19  C   LIG    1       -3.088  -4.045   4.121  0.00  0.00    +0.309 C 
ATOM     20  C   LIG    1       -3.411  -4.861   5.367  0.00  0.00    +0.136 C 
ATOM     21  O   LIG    1       -3.839  -4.061   3.144  0.00  0.00    -0.251 OA
ENDBRANCH  18  19
ENDBRANCH  15  18
ENDBRANCH   3  12
BRANCH   3  22
ATOM     22  C   LIG    1        1.513   0.042  -0.076  0.00  0.00    -0.024 A 
ATOM     23  C   LIG    1        2.216   0.231   1.124  0.00  0.00    +0.009 A 
ATOM     24  C   LIG    1        3.606   0.294   1.139  0.00  0.00    +0.047 A 
ATOM     25  C   LIG    1        4.320   0.183  -0.055  0.00  0.00    +0.132 A 
ATOM     26  C   LIG    1        3.640  -0.016  -1.256  0.00  0.00    +0.047 A 
ATOM     27  C   LIG    1        2.250  -0.080  -1.267  0.00  0.00    +0.009 A 
BRANCH  25  28
ATOM     28  O   LIG    1        5.696   0.227  -0.052  0.00  0.00    -0.426 OA
BRANCH  28  29
ATOM     29  C   LIG    1        6.327   1.433  -0.014  0.00  0.00    +0.309 C 
ATOM     30  C   LIG    1        7.844   1.293  -0.005  0.00  0.00    +0.136 C 
ATOM     31  O   LIG    1        5.795   2.545   0.011  0.00  0.00    -0.251 OA
ENDBRANCH  28  29
ENDBRANCH  25  28
ENDBRANCH   3  22
TORSDOF 6
