REMARK  Name = DB14123
REMARK                            x       y       z     vdW  Elec       q    Type
REMARK                         _______ _______ _______ _____ _____    ______ ____
ROOT
ATOM      1  C   LIG    1       -2.079  -0.848  -1.286  0.00  0.00    +0.004 C 
ATOM      2  C   LIG    1       -2.697  -1.421   0.015  0.00  0.00    -0.012 C 
ATOM      3  C   LIG    1       -2.577  -2.958   0.082  0.00  0.00    +0.007 C 
ATOM      4  C   LIG    1       -2.074  -0.730   1.257  0.00  0.00    +0.035 C 
ATOM      5  C   LIG    1       -0.526  -0.772   1.251  0.00  0.00    +0.118 C 
ATOM      6  C   LIG    1        0.040  -0.128  -0.050  0.00  0.00    +0.020 C 
ATOM      7  C   LIG    1       -0.535  -0.888  -1.275  0.00  0.00    +0.006 C 
ENDROOT
BRANCH   6   8
ATOM      8  C   LIG    1        1.592   0.039  -0.067  0.00  0.00    -0.012 C 
ATOM      9  C   LIG    1        2.364  -1.297  -0.035  0.00  0.00    +0.007 C 
ATOM     10  C   LIG    1        2.080   0.926  -1.229  0.00  0.00    +0.007 C 
ENDBRANCH   6   8
BRANCH   5  11
ATOM     11  O   LIG    1       -0.012  -0.192   2.435  0.00  0.00    -0.391 OA
ATOM     12  H   LIG    1       -0.517   0.600   2.630  0.00  0.00    +0.210 HD
ENDBRANCH   5  11
TORSDOF 2
