REMARK  Name = DB14486
REMARK                            x       y       z     vdW  Elec       q    Type
REMARK                         _______ _______ _______ _____ _____    ______ ____
ROOT
ATOM      1  C   LIG    1       -0.550  -0.605  -1.324  0.00  0.00    +0.186 C 
ATOM      2  C   LIG    1       -1.315   0.299  -1.938  0.00  0.00    +0.244 C 
ATOM      3  C   LIG    1       -1.309   1.518  -1.147  0.00  0.00    +0.378 C 
ATOM      4  O   LIG    1       -1.896   2.572  -1.387  0.00  0.00    -0.241 OA
ATOM      5  O   LIG    1       -0.531   1.305  -0.063  0.00  0.00    -0.445 OA
ATOM      6  C   LIG    1        0.021  -0.006  -0.066  0.00  0.00    +0.276 C 
ENDROOT
BRANCH   1   7
ATOM      7  O   LIG    1       -0.227  -1.892  -1.618  0.00  0.00    -0.504 OA
ATOM      8  H   LIG    1       -0.661  -2.152  -2.435  0.00  0.00    +0.292 HD
ENDBRANCH   1   7
BRANCH   2   9
ATOM      9  O   LIG    1       -2.041   0.259  -3.087  0.00  0.00    -0.499 OA
ATOM     10  H   LIG    1       -2.473   1.107  -3.222  0.00  0.00    +0.293 HD
ENDBRANCH   2   9
BRANCH   6  11
ATOM     11  C   LIG    1        1.574   0.045  -0.005  0.00  0.00    +0.188 C 
BRANCH  11  12
ATOM     12  O   LIG    1        2.113   0.676  -1.158  0.00  0.00    -0.385 OA
ATOM     13  H   LIG    1        1.807   0.204  -1.936  0.00  0.00    +0.210 HD
ENDBRANCH  11  12
BRANCH  11  14
ATOM     14  C   LIG    1        2.095   0.753   1.265  0.00  0.00    +0.191 C 
BRANCH  14  15
ATOM     15  O   LIG    1        3.478   0.525   1.455  0.00  0.00    -0.392 OA
ATOM     16  H   LIG    1        3.762   1.000   2.239  0.00  0.00    +0.210 HD
ENDBRANCH  14  15
ENDBRANCH  11  14
ENDBRANCH   6  11
TORSDOF 6
