REMARK  Name = DB14646
REMARK                            x       y       z     vdW  Elec       q    Type
REMARK                         _______ _______ _______ _____ _____    ______ ____
ROOT
ATOM      1  C   LIG    1       -1.787  -1.544  -0.641  0.00  0.00    +0.008 C 
ATOM      2  C   LIG    1       -0.518  -0.804  -1.114  0.00  0.00    +0.043 C 
ATOM      3  C   LIG    1        0.019  -0.010   0.118  0.00  0.00    +0.133 C 
ATOM      4  C   LIG    1       -0.509  -0.853   1.339  0.00  0.00    +0.013 C 
ATOM      5  C   LIG    1        0.328  -2.164   1.562  0.00  0.00    +0.015 C 
ATOM      6  C   LIG    1       -0.641  -0.093   2.691  0.00  0.00    +0.084 C 
ATOM      7  C   LIG    1       -1.475  -0.871   3.732  0.00  0.00    +0.138 C 
ATOM      8  O   LIG    1       -1.042  -1.065   4.866  0.00  0.00    -0.297 OA
ATOM      9  C   LIG    1       -2.861  -1.388   3.221  0.00  0.00    +0.072 C 
ATOM     10  C   LIG    1       -2.749  -2.056   1.803  0.00  0.00    +0.004 C 
ATOM     11  C   LIG    1       -4.154  -2.387   1.260  0.00  0.00    +0.009 C 
ATOM     12  C   LIG    1       -4.927  -3.313   2.208  0.00  0.00    +0.032 C 
ATOM     13  C   LIG    1       -5.053  -2.621   3.563  0.00  0.00    -0.056 C 
ATOM     14  C   LIG    1       -6.265  -2.329   4.094  0.00  0.00    +0.051 C 
ATOM     15  C   LIG    1       -6.489  -1.631   5.359  0.00  0.00    +0.179 C 
ATOM     16  O   LIG    1       -7.607  -1.408   5.817  0.00  0.00    -0.288 OA
ATOM     17  C   LIG    1       -5.256  -1.215   6.017  0.00  0.00    +0.047 C 
ATOM     18  C   LIG    1       -4.023  -1.478   5.540  0.00  0.00    -0.012 C 
ATOM     19  C   LIG    1       -3.701  -2.253   4.247  0.00  0.00    +0.017 C 
ATOM     20  C   LIG    1       -2.988  -3.566   4.674  0.00  0.00    +0.021 C 
ATOM     21  C   LIG    1       -1.944  -1.152   0.835  0.00  0.00    +0.002 C 
ENDROOT
BRANCH   3  22
ATOM     22  C   LIG    1        1.573   0.146   0.109  0.00  0.00    +0.202 C 
ATOM     23  O   LIG    1        2.291  -0.637  -0.517  0.00  0.00    -0.291 OA
BRANCH  22  24
ATOM     24  C   LIG    1        2.196   1.312   0.901  0.00  0.00    +0.309 C 
BRANCH  24  25
ATOM     25  O   LIG    1        3.610   1.169   1.002  0.00  0.00    -0.457 OA
BRANCH  25  26
ATOM     26  C   LIG    1        4.340   2.058   1.705  0.00  0.00    +0.304 C 
ATOM     27  O   LIG    1        3.910   3.040   2.312  0.00  0.00    -0.251 OA
ATOM     28  C   LIG    1        5.827   1.727   1.686  0.00  0.00    +0.136 C 
ENDBRANCH  25  26
ENDBRANCH  24  25
ENDBRANCH  22  24
ENDBRANCH   3  22
BRANCH   3  29
ATOM     29  O   LIG    1       -0.502   1.316   0.094  0.00  0.00    -0.380 OA
ATOM     30  H   LIG    1       -1.458   1.266   0.026  0.00  0.00    +0.211 HD
ENDBRANCH   3  29
TORSDOF 5
