REMARK  Name = DB14025
REMARK                            x       y       z     vdW  Elec       q    Type
REMARK                         _______ _______ _______ _____ _____    ______ ____
ROOT
ATOM      1  N   LIG    1       -2.798  -2.446  -0.283  0.00  0.00    -0.341 N 
ATOM      2  C   LIG    1       -4.147  -2.434  -0.591  0.00  0.00    +0.105 A 
ATOM      3  C   LIG    1       -5.015  -1.407  -0.358  0.00  0.00    +0.122 A 
ATOM      4  C   LIG    1       -4.436  -0.157   0.225  0.00  0.00    +0.203 A 
ATOM      5  O   LIG    1       -5.103   0.799   0.628  0.00  0.00    -0.286 OA
ATOM      6  C   LIG    1       -2.922  -0.091   0.212  0.00  0.00    +0.050 A 
ATOM      7  C   LIG    1       -2.295   1.127   0.504  0.00  0.00    +0.054 A 
ATOM      8  C   LIG    1       -0.914   1.262   0.429  0.00  0.00    +0.147 A 
ATOM      9  F   LIG    1       -0.359   2.465   0.714  0.00  0.00    -0.203 F 
ATOM     10  C   LIG    1       -0.117   0.182   0.041  0.00  0.00    +0.086 A 
ATOM     11  C   LIG    1       -0.718  -1.058  -0.240  0.00  0.00    +0.089 A 
ATOM     12 CL   LIG    1        0.290  -2.362  -0.801  0.00  0.00    -0.079 Cl
ATOM     13  C   LIG    1       -2.118  -1.213  -0.098  0.00  0.00    +0.074 A 
ENDROOT
BRANCH  10  14
ATOM     14  N   LIG    1        1.267   0.351  -0.069  0.00  0.00    -0.328 N 
ATOM     15  C   LIG    1        1.937   1.005  -1.185  0.00  0.00    +0.103 C 
ATOM     16  C   LIG    1        3.431   0.816  -0.954  0.00  0.00    +0.004 C 
ATOM     17  C   LIG    1        3.553   0.895   0.562  0.00  0.00    -0.056 C 
ATOM     18  C   LIG    1        2.179   0.429   1.069  0.00  0.00    +0.089 C 
BRANCH  17  19
ATOM     19  N   LIG    1        4.800   0.259   1.186  0.00  0.00    +0.381 N 
ATOM     20  H   LIG    1        5.634   0.676   0.799  0.00  0.00    -0.090 HD
ATOM     21  H   LIG    1        4.798   0.400   2.186  0.00  0.00    -0.090 HD
ATOM     22  H   LIG    1        4.814  -0.733   0.997  0.00  0.00    -0.090 HD
ENDBRANCH  17  19
ENDBRANCH  10  14
BRANCH   1  23
ATOM     23  C   LIG    1       -2.242  -3.728   0.167  0.00  0.00    +0.087 C 
ATOM     24  C   LIG    1       -1.716  -3.805   1.593  0.00  0.00    +0.027 C 
ATOM     25  C   LIG    1       -2.990  -4.510   1.239  0.00  0.00    +0.027 C 
ENDBRANCH   1  23
BRANCH   3  26
ATOM     26  C   LIG    1       -6.546  -1.640  -0.746  0.00  0.00    +0.342 C 
ATOM     27  O   LIG    1       -7.298  -0.646  -0.614  0.00  0.00    -0.245 OA
BRANCH  26  28
ATOM     28  O   LIG    1       -6.880  -2.781  -1.148  0.00  0.00    -0.477 OA
ATOM     29  H   LIG    1       -6.239  -3.461  -1.213  0.00  0.00    +0.295 HD
ENDBRANCH  26  28
ENDBRANCH   3  26
TORSDOF 5
