REMARK  Name = DB14942
REMARK                            x       y       z     vdW  Elec       q    Type
REMARK                         _______ _______ _______ _____ _____    ______ ____
ROOT
ATOM      1  C   LIG    1       -1.843   3.354   0.063  0.00  0.00    +0.156 A 
ATOM      2  O   LIG    1       -2.876   2.481   0.252  0.00  0.00    -0.453 OA
ATOM      3  C   LIG    1       -2.383   1.232   0.002  0.00  0.00    +0.143 A 
ATOM      4  C   LIG    1       -3.106   0.037   0.079  0.00  0.00    +0.092 A 
ATOM      5  C   LIG    1       -2.422  -1.154  -0.217  0.00  0.00    +0.127 A 
ATOM      6  C   LIG    1       -1.070  -1.115  -0.574  0.00  0.00    +0.092 A 
ATOM      7  C   LIG    1       -0.351   0.090  -0.650  0.00  0.00    +0.135 A 
ATOM      8  C   LIG    1       -1.020   1.288  -0.355  0.00  0.00    +0.063 A 
ATOM      9  C   LIG    1       -0.687   2.677  -0.308  0.00  0.00    +0.063 A 
ENDROOT
BRANCH   1  14
ATOM     10  C   LIG    1       -3.069   8.822   0.889  0.00  0.00    +0.277 A 
ATOM     11  S   LIG    1       -1.376   8.521   0.500  0.00  0.00    +0.010 S 
ATOM     12  C   LIG    1       -1.787   6.822   0.413  0.00  0.00    +0.199 A 
ATOM     13  N   LIG    1       -1.186   5.681   0.166  0.00  0.00    -0.217 NA
ATOM     14  C   LIG    1       -2.133   4.762   0.275  0.00  0.00    +0.127 A 
ATOM     15  C   LIG    1       -3.373   5.320   0.600  0.00  0.00    +0.146 A 
ATOM     16  N   LIG    1       -3.124   6.673   0.684  0.00  0.00    -0.210 N 
ATOM     17  N   LIG    1       -3.870   7.784   0.955  0.00  0.00    -0.120 NA
BRANCH  10  19
ATOM     18  C   LIG    1       -4.761  10.419   1.377  0.00  0.00    +0.279 C 
ATOM     19  O   LIG    1       -3.394  10.143   1.089  0.00  0.00    -0.474 OA
ENDBRANCH  10  19
ENDBRANCH   1  14
BRANCH   5  20
ATOM     20  O   LIG    1       -3.005  -2.406  -0.180  0.00  0.00    -0.495 OA
ATOM     21  C   LIG    1       -4.378  -2.525   0.177  0.00  0.00    +0.277 C 
ENDBRANCH   5  20
BRANCH   7  22
ATOM     22  O   LIG    1        0.979   0.227  -0.993  0.00  0.00    -0.485 OA
BRANCH  22  23
ATOM     23  C   LIG    1        1.729  -0.940  -1.321  0.00  0.00    +0.285 C 
BRANCH  23  24
ATOM     24  C   LIG    1        3.147  -0.539  -1.682  0.00  0.00    +0.086 A 
ATOM     25  N   LIG    1        3.963  -1.521  -2.021  0.00  0.00    -0.241 NA
ATOM     26  C   LIG    1        5.173  -1.105  -2.321  0.00  0.00    +0.109 A 
ATOM     27  S   LIG    1        5.375   0.622  -2.200  0.00  0.00    -0.075 S 
ATOM     28  C   LIG    1        3.715   0.734  -1.709  0.00  0.00    +0.074 A 
BRANCH  26  29
ATOM     29  C   LIG    1        6.289  -2.014  -2.751  0.00  0.00    +0.007 A 
ATOM     30  C   LIG    1        7.630  -1.633  -2.625  0.00  0.00    +0.011 A 
ATOM     31  C   LIG    1        8.651  -2.490  -3.025  0.00  0.00    +0.014 A 
ATOM     32  C   LIG    1        8.351  -3.756  -3.546  0.00  0.00    +0.037 A 
ATOM     33  C   LIG    1        7.011  -4.133  -3.685  0.00  0.00    +0.014 A 
ATOM     34  C   LIG    1        5.992  -3.274  -3.284  0.00  0.00    +0.011 A 
BRANCH  32  35
ATOM     35  C   LIG    1        9.444  -4.693  -4.017  0.00  0.00    +0.246 C 
ATOM     36  N   LIG    1       10.582  -4.822  -3.282  0.00  0.00    -0.304 N 
ATOM     37  C   LIG    1       11.797  -5.418  -3.843  0.00  0.00    +0.132 C 
ATOM     38  C   LIG    1       10.721  -4.464  -1.868  0.00  0.00    +0.132 C 
ATOM     39  O   LIG    1        9.275  -5.297  -5.080  0.00  0.00    -0.270 OA
ENDBRANCH  32  35
ENDBRANCH  26  29
ENDBRANCH  23  24
ENDBRANCH  22  23
ENDBRANCH   7  22
TORSDOF 8
