REMARK  Name = DB14826
REMARK                            x       y       z     vdW  Elec       q    Type
REMARK                         _______ _______ _______ _____ _____    ______ ____
ROOT
ATOM      1  C   LIG    1        0.300   2.280  -0.091  0.00  0.00    +0.045 C 
ATOM      2  C   LIG    1       -0.607   1.034  -0.021  0.00  0.00    -0.029 A 
ATOM      3  C   LIG    1       -2.022   1.156  -0.110  0.00  0.00    +0.028 A 
ATOM      4  C   LIG    1       -2.825  -0.012  -0.185  0.00  0.00    +0.097 A 
ATOM      5  C   LIG    1       -2.208  -1.263  -0.161  0.00  0.00    +0.028 A 
ATOM      6  C   LIG    1       -0.834  -1.384  -0.044  0.00  0.00    +0.014 A 
ATOM      7  C   LIG    1       -0.022  -0.254   0.058  0.00  0.00    +0.026 A 
ENDROOT
BRANCH   3   8
ATOM      8  C   LIG    1       -2.640   2.497  -0.101  0.00  0.00    +0.093 C 
ATOM      9  N   LIG    1       -3.208   3.071  -1.076  0.00  0.00    -0.089 NA
ATOM     10  O   LIG    1       -3.659   4.355  -0.694  0.00  0.00    -0.393 OA
ATOM     11  C   LIG    1       -3.552   4.486   0.712  0.00  0.00    +0.269 C 
ATOM     12  C   LIG    1       -2.602   3.378   1.115  0.00  0.00    +0.103 C 
ENDBRANCH   3   8
BRANCH   4  13
ATOM     13  S   LIG    1       -4.643  -0.021  -0.300  0.00  0.00    -0.005 S 
ATOM     14  O   LIG    1       -5.033   0.845  -1.416  0.00  0.00    -0.170 OA
ATOM     15  O   LIG    1       -5.087  -1.419  -0.290  0.00  0.00    -0.170 OA
ATOM     16  C   LIG    1       -5.238   0.758   1.315  0.00  0.00    +0.200 C 
ENDBRANCH   4  13
BRANCH   7  17
ATOM     17  C   LIG    1        1.452  -0.500   0.197  0.00  0.00    +0.200 C 
ATOM     18  O   LIG    1        2.033  -1.312  -0.526  0.00  0.00    -0.286 OA
BRANCH  17  19
ATOM     19  C   LIG    1        2.156   0.107   1.338  0.00  0.00    +0.103 A 
ATOM     20  C   LIG    1        3.529   0.290   1.552  0.00  0.00    +0.222 A 
ATOM     21  N   LIG    1        3.638   0.907   2.784  0.00  0.00    -0.236 N 
ATOM     22  N   LIG    1        2.446   1.110   3.361  0.00  0.00    -0.176 NA
ATOM     23  C   LIG    1        4.841   1.325   3.505  0.00  0.00    +0.176 C 
ATOM     24  C   LIG    1        1.573   0.636   2.505  0.00  0.00    +0.150 A 
BRANCH  20  25
ATOM     25  O   LIG    1        4.537  -0.001   0.822  0.00  0.00    -0.492 OA
ATOM     26  H   LIG    1        4.410  -0.419  -0.007  0.00  0.00    +0.294 HD
ENDBRANCH  20  25
ENDBRANCH  17  19
ENDBRANCH   7  17
TORSDOF 5
