REMARK  Name = DB14803
REMARK                            x       y       z     vdW  Elec       q    Type
REMARK                         _______ _______ _______ _____ _____    ______ ____
ROOT
ATOM      1  C   LIG    1        1.466   0.801   0.138  0.00  0.00    +0.169 C 
ATOM      2  C   LIG    1        2.129   0.129  -1.086  0.00  0.00    +0.235 C 
ATOM      3  O   LIG    1        3.310  -0.184  -0.945  0.00  0.00    -0.274 OA
ATOM      4  N   LIG    1        1.533  -0.102  -2.276  0.00  0.00    -0.302 N 
ATOM      5  H   LIG    1        2.156  -0.515  -2.955  0.00  0.00    +0.150 HD
ATOM      6  C   LIG    1        0.182   0.024  -2.837  0.00  0.00    +0.161 C 
ATOM      7  C   LIG    1       -0.659  -1.236  -2.531  0.00  0.00    +0.234 C 
ATOM      8  O   LIG    1       -0.238  -2.314  -2.951  0.00  0.00    -0.274 OA
ATOM      9  N   LIG    1       -1.823  -1.115  -1.877  0.00  0.00    -0.302 N 
ATOM     10  H   LIG    1       -2.125  -0.208  -1.553  0.00  0.00    +0.150 HD
ATOM     11  C   LIG    1       -2.810  -2.189  -1.768  0.00  0.00    +0.163 C 
ATOM     12  C   LIG    1       -4.168  -1.498  -1.612  0.00  0.00    +0.234 C 
ATOM     13  O   LIG    1       -4.514  -1.102  -0.501  0.00  0.00    -0.274 OA
ATOM     14  N   LIG    1       -4.867  -1.331  -2.749  0.00  0.00    -0.302 N 
ATOM     15  H   LIG    1       -4.474  -1.710  -3.599  0.00  0.00    +0.150 HD
ATOM     16  C   LIG    1       -6.101  -0.561  -2.953  0.00  0.00    +0.159 C 
ATOM     17  C   LIG    1       -5.834   0.956  -2.911  0.00  0.00    +0.234 C 
ATOM     18  O   LIG    1       -5.204   1.450  -1.975  0.00  0.00    -0.274 OA
ATOM     19  N   LIG    1       -6.342   1.666  -3.931  0.00  0.00    -0.302 N 
ATOM     20  H   LIG    1       -6.843   1.189  -4.666  0.00  0.00    +0.150 HD
ATOM     21  C   LIG    1       -6.244   3.123  -4.077  0.00  0.00    +0.169 C 
ATOM     22  C   LIG    1       -6.999   3.864  -2.961  0.00  0.00    +0.234 C 
ATOM     23  O   LIG    1       -8.081   3.426  -2.568  0.00  0.00    -0.274 OA
ATOM     24  N   LIG    1       -6.400   4.976  -2.495  0.00  0.00    -0.302 N 
ATOM     25  H   LIG    1       -5.519   5.239  -2.910  0.00  0.00    +0.150 HD
ATOM     26  C   LIG    1       -6.850   5.866  -1.410  0.00  0.00    +0.163 C 
ATOM     27  C   LIG    1       -6.688   5.243   0.006  0.00  0.00    +0.236 C 
ATOM     28  O   LIG    1       -6.737   4.013   0.091  0.00  0.00    -0.274 OA
ATOM     29  N   LIG    1       -6.483   6.053   1.089  0.00  0.00    -0.294 N 
ATOM     30  C   LIG    1       -6.364   5.414   2.415  0.00  0.00    +0.132 C 
ATOM     31  C   LIG    1       -6.793   7.502   1.061  0.00  0.00    +0.203 C 
ATOM     32  C   LIG    1       -5.819   8.386   1.860  0.00  0.00    +0.231 C 
ATOM     33  O   LIG    1       -6.247   9.421   2.369  0.00  0.00    -0.274 OA
ATOM     34  N   LIG    1       -4.543   7.984   1.995  0.00  0.00    -0.303 N 
ATOM     35  H   LIG    1       -4.234   7.133   1.547  0.00  0.00    +0.149 HD
ATOM     36  C   LIG    1       -3.549   8.673   2.820  0.00  0.00    +0.156 C 
ATOM     37  C   LIG    1       -3.769   8.301   4.300  0.00  0.00    +0.038 C 
ATOM     38  C   LIG    1       -2.115   8.337   2.390  0.00  0.00    +0.234 C 
ATOM     39  O   LIG    1       -1.890   7.330   1.720  0.00  0.00    -0.274 OA
ATOM     40  N   LIG    1       -1.176   9.185   2.853  0.00  0.00    -0.302 N 
ATOM     41  H   LIG    1       -1.496   9.986   3.377  0.00  0.00    +0.150 HD
ATOM     42  C   LIG    1        0.287   9.067   2.768  0.00  0.00    +0.161 C 
ATOM     43  C   LIG    1        0.863   9.280   1.355  0.00  0.00    +0.234 C 
ATOM     44  O   LIG    1        0.241   8.915   0.358  0.00  0.00    -0.274 OA
ATOM     45  N   LIG    1        2.084   9.842   1.317  0.00  0.00    -0.302 N 
ATOM     46  H   LIG    1        2.528  10.107   2.184  0.00  0.00    +0.150 HD
ATOM     47  C   LIG    1        2.872  10.088   0.104  0.00  0.00    +0.159 C 
ATOM     48  C   LIG    1        3.731   8.877  -0.333  0.00  0.00    +0.234 C 
ATOM     49  O   LIG    1        4.588   9.045  -1.201  0.00  0.00    -0.274 OA
ATOM     50  N   LIG    1        3.505   7.700   0.278  0.00  0.00    -0.302 N 
ATOM     51  H   LIG    1        2.767   7.652   0.965  0.00  0.00    +0.150 HD
ATOM     52  C   LIG    1        4.196   6.432   0.029  0.00  0.00    +0.170 C 
ATOM     53  C   LIG    1        3.627   5.366   0.990  0.00  0.00    +0.112 C 
ATOM     54  S   LIG    1        1.820   5.157   1.013  0.00  0.00    -0.091 S 
ATOM     55  S   LIG    1        1.551   3.247   1.646  0.00  0.00    -0.091 S 
ATOM     56  C   LIG    1        1.678   2.330   0.090  0.00  0.00    +0.112 C 
ENDROOT
BRANCH   1  58
ATOM     57  C   LIG    1       -0.480   0.357   1.611  0.00  0.00    +0.234 C 
ATOM     58  N   LIG    1        0.059   0.482   0.384  0.00  0.00    -0.302 N 
ATOM     59  H   LIG    1       -0.544   0.500  -0.426  0.00  0.00    +0.150 HD
ATOM     60  O   LIG    1        0.177   0.301   2.653  0.00  0.00    -0.274 OA
BRANCH  57  61
ATOM     61  C   LIG    1       -2.024   0.350   1.683  0.00  0.00    +0.162 C 
BRANCH  61  62
ATOM     62  N   LIG    1       -2.560  -0.251   2.910  0.00  0.00    -0.305 N 
ATOM     63  H   LIG    1       -3.104   0.374   3.486  0.00  0.00    +0.149 HD
ATOM     64  C   LIG    1       -2.396  -1.524   3.309  0.00  0.00    +0.199 C 
ATOM     65  O   LIG    1       -1.750  -2.353   2.660  0.00  0.00    -0.278 OA
BRANCH  64  66
ATOM     66  C   LIG    1       -3.093  -1.873   4.657  0.00  0.00    +0.017 C 
BRANCH  66  67
ATOM     67  N   LIG    1       -2.574  -3.201   5.147  0.00  0.00    +0.386 N 
ATOM     68  H   LIG    1       -3.088  -3.474   5.972  0.00  0.00    -0.089 HD
ATOM     69  H   LIG    1       -2.708  -3.887   4.417  0.00  0.00    -0.089 HD
ATOM     70  H   LIG    1       -1.591  -3.113   5.364  0.00  0.00    -0.089 HD
ENDBRANCH  66  67
BRANCH  66  71
ATOM     71  C   LIG    1       -4.645  -1.828   4.604  0.00  0.00    +0.028 C 
BRANCH  71  72
ATOM     72  C   LIG    1       -5.358  -2.727   3.601  0.00  0.00    -0.048 A 
ATOM     73  C   LIG    1       -5.722  -4.044   3.955  0.00  0.00    +0.007 A 
ATOM     74  C   LIG    1       -6.427  -4.854   3.044  0.00  0.00    +0.045 A 
ATOM     75  C   LIG    1       -6.772  -4.352   1.774  0.00  0.00    +0.117 A 
ATOM     76  C   LIG    1       -6.399  -3.044   1.412  0.00  0.00    +0.045 A 
ATOM     77  C   LIG    1       -5.696  -2.233   2.323  0.00  0.00    +0.007 A 
BRANCH  75  78
ATOM     78  O   LIG    1       -7.470  -5.128   0.897  0.00  0.00    -0.507 OA
ATOM     79  H   LIG    1       -7.680  -5.997   1.248  0.00  0.00    +0.292 HD
ENDBRANCH  75  78
ENDBRANCH  71  72
ENDBRANCH  66  71
ENDBRANCH  64  66
ENDBRANCH  61  62
BRANCH  61  80
ATOM     80  C   LIG    1       -2.516   1.825   1.542  0.00  0.00    +0.015 C 
ATOM     81  C   LIG    1       -4.036   1.886   1.306  0.00  0.00    +0.010 C 
BRANCH  80  83
ATOM     82  C   LIG    1       -2.305   4.249   2.407  0.00  0.00    +0.004 C 
ATOM     83  C   LIG    1       -2.110   2.758   2.713  0.00  0.00    +0.002 C 
ENDBRANCH  80  83
ENDBRANCH  61  80
ENDBRANCH  57  61
ENDBRANCH   1  58
BRANCH  52  84
ATOM     84  C   LIG    1        4.106   5.949  -1.447  0.00  0.00    +0.237 C 
ATOM     85  N   LIG    1        5.237   5.579  -2.125  0.00  0.00    -0.291 N 
ATOM     86  C   LIG    1        6.513   6.242  -1.793  0.00  0.00    +0.133 C 
ATOM     87  O   LIG    1        2.970   5.842  -1.915  0.00  0.00    -0.274 OA
BRANCH  85  88
ATOM     88  C   LIG    1        5.207   4.805  -3.419  0.00  0.00    +0.164 C 
BRANCH  88  89
ATOM     89  C   LIG    1        4.152   3.663  -3.517  0.00  0.00    +0.231 C 
ATOM     90  O   LIG    1        4.022   2.855  -2.598  0.00  0.00    -0.274 OA
ATOM     91  N   LIG    1        3.418   3.615  -4.632  0.00  0.00    -0.328 N 
ATOM     92  H   LIG    1        2.721   2.894  -4.747  0.00  0.00    +0.145 HD
ATOM     93  H   LIG    1        3.549   4.301  -5.361  0.00  0.00    +0.145 HD
ENDBRANCH  88  89
BRANCH  88  94
ATOM     94  C   LIG    1        6.590   4.200  -3.880  0.00  0.00    +0.015 C 
ATOM     95  C   LIG    1        7.141   3.107  -2.936  0.00  0.00    +0.010 C 
BRANCH  94  96
ATOM     96  C   LIG    1        6.574   3.686  -5.342  0.00  0.00    +0.002 C 
ATOM     97  C   LIG    1        7.970   3.480  -5.948  0.00  0.00    +0.004 C 
ENDBRANCH  94  96
ENDBRANCH  88  94
ENDBRANCH  85  88
ENDBRANCH  52  84
BRANCH   6  98
ATOM     98  C   LIG    1       -0.535   1.415  -2.722  0.00  0.00    +0.012 C 
ATOM     99  C   LIG    1        0.366   2.532  -3.285  0.00  0.00    +0.009 C 
ATOM    100  C   LIG    1       -1.892   1.510  -3.458  0.00  0.00    +0.009 C 
ENDBRANCH   6  98
BRANCH  42 101
ATOM    101  C   LIG    1        0.776   7.727   3.364  0.00  0.00    +0.057 C 
BRANCH 101 102
ATOM    102  C   LIG    1        0.348   7.473   4.788  0.00  0.00    +0.059 C 
ATOM    103  N   LIG    1       -0.276   6.290   5.156  0.00  0.00    -0.290 NA
ATOM    104  H   LIG    1       -0.576   5.553   4.533  0.00  0.00    +0.124 HD
ATOM    105  C   LIG    1       -0.414   6.316   6.479  0.00  0.00    +0.155 C 
ATOM    106  N   LIG    1        0.127   7.411   7.009  0.00  0.00    -0.293 NA
ATOM    107  H   LIG    1        0.172   7.645   7.991  0.00  0.00    +0.124 HD
ATOM    108  C   LIG    1        0.657   8.141   5.959  0.00  0.00    +0.096 C 
ENDBRANCH 101 102
ENDBRANCH  42 101
BRANCH  26 109
ATOM    109  C   LIG    1       -8.296   6.376  -1.661  0.00  0.00    +0.069 C 
BRANCH 109 110
ATOM    110  C   LIG    1       -8.543   7.021  -2.994  0.00  0.00    -0.020 A 
ATOM    111  C   LIG    1       -8.142   8.350  -3.451  0.00  0.00    +0.003 A 
ATOM    112  C   LIG    1       -7.469   9.444  -2.858  0.00  0.00    +0.010 A 
ATOM    113  C   LIG    1       -7.226  10.631  -3.580  0.00  0.00    +0.001 A 
ATOM    114  C   LIG    1       -7.649  10.752  -4.918  0.00  0.00    +0.002 A 
ATOM    115  C   LIG    1       -8.316   9.681  -5.541  0.00  0.00    +0.026 A 
ATOM    116  C   LIG    1       -8.553   8.503  -4.811  0.00  0.00    +0.047 A 
ATOM    117  N   LIG    1       -9.157   7.303  -5.123  0.00  0.00    -0.360 N 
ATOM    118  H   LIG    1       -9.559   7.059  -6.018  0.00  0.00    +0.165 HD
ATOM    119  C   LIG    1       -9.143   6.433  -4.054  0.00  0.00    +0.087 A 
ENDBRANCH 109 110
ENDBRANCH  26 109
BRANCH  21 120
ATOM    120  C   LIG    1       -6.715   3.634  -5.463  0.00  0.00    +0.152 C 
BRANCH 120 121
ATOM    121  C   LIG    1       -6.170   2.820  -6.648  0.00  0.00    +0.307 C 
ATOM    122  O   LIG    1       -4.966   2.985  -6.946  0.00  0.00    -0.251 OA
BRANCH 121 123
ATOM    123  O   LIG    1       -6.913   1.932  -7.124  0.00  0.00    -0.481 OA
ATOM    124  H   LIG    1       -6.618   1.413  -7.847  0.00  0.00    +0.295 HD
ENDBRANCH 121 123
ENDBRANCH 120 121
ENDBRANCH  21 120
BRANCH  16 125
ATOM    125  C   LIG    1       -7.225  -1.000  -1.979  0.00  0.00    +0.041 C 
BRANCH 125 126
ATOM    126  C   LIG    1       -8.602  -0.365  -2.264  0.00  0.00    +0.098 C 
BRANCH 126 127
ATOM    127  C   LIG    1       -9.686  -0.816  -1.281  0.00  0.00    +0.211 C 
ATOM    128  O   LIG    1       -9.603  -1.889  -0.685  0.00  0.00    -0.276 OA
ATOM    129  N   LIG    1      -10.730   0.002  -1.125  0.00  0.00    -0.329 N 
ATOM    130  H   LIG    1      -11.478  -0.246  -0.494  0.00  0.00    +0.145 HD
ATOM    131  H   LIG    1      -10.775   0.875  -1.631  0.00  0.00    +0.145 HD
ENDBRANCH 126 127
ENDBRANCH 125 126
ENDBRANCH  16 125
BRANCH  11 132
ATOM    132  C   LIG    1       -2.484  -3.197  -0.634  0.00  0.00    +0.069 C 
BRANCH 132 133
ATOM    133  C   LIG    1       -3.381  -4.427  -0.574  0.00  0.00    -0.020 A 
ATOM    134  C   LIG    1       -3.424  -5.388   0.495  0.00  0.00    +0.003 A 
ATOM    135  C   LIG    1       -2.735  -5.515   1.713  0.00  0.00    +0.010 A 
ATOM    136  C   LIG    1       -3.024  -6.587   2.554  0.00  0.00    +0.001 A 
ATOM    137  C   LIG    1       -3.978  -7.536   2.204  0.00  0.00    +0.002 A 
ATOM    138  C   LIG    1       -4.682  -7.463   1.002  0.00  0.00    +0.026 A 
ATOM    139  C   LIG    1       -4.396  -6.382   0.156  0.00  0.00    +0.049 A 
ATOM    140  N   LIG    1       -4.917  -6.033  -1.076  0.00  0.00    -0.349 N 
ATOM    141  C   LIG    1       -5.924  -6.771  -1.821  0.00  0.00    +0.149 C 
ATOM    142  C   LIG    1       -4.302  -4.881  -1.502  0.00  0.00    +0.090 A 
ENDBRANCH 132 133
ENDBRANCH  11 132
BRANCH  47 143
ATOM    143  C   LIG    1        3.718  11.367   0.313  0.00  0.00    +0.033 C 
BRANCH 143 144
ATOM    144  C   LIG    1        4.844  11.255   1.361  0.00  0.00    +0.017 C 
BRANCH 144 145
ATOM    145  C   LIG    1        5.653  12.556   1.490  0.00  0.00    +0.084 C 
BRANCH 145 146
ATOM    146  N   LIG    1        6.847  12.388   2.337  0.00  0.00    -0.283 NA
ATOM    147  H   LIG    1        6.724  12.624   3.312  0.00  0.00    +0.125 HD
BRANCH 146 148
ATOM    148  C   LIG    1        8.056  11.928   1.954  0.00  0.00    +0.167 C 
BRANCH 148 149
ATOM    149  N   LIG    1        8.319  11.557   0.690  0.00  0.00    -0.297 NA
ATOM    150  H   LIG    1        7.597  11.616  -0.015  0.00  0.00    +0.121 HD
ATOM    151  H   LIG    1        9.237  11.222   0.436  0.00  0.00    +0.121 HD
ENDBRANCH 148 149
BRANCH 148 152
ATOM    152  N   LIG    1        9.030  11.836   2.869  0.00  0.00    -0.297 NA
ATOM    153  H   LIG    1        8.860  12.117   3.824  0.00  0.00    +0.121 HD
ATOM    154  H   LIG    1        9.944  11.495   2.607  0.00  0.00    +0.121 HD
ENDBRANCH 148 152
ENDBRANCH 146 148
ENDBRANCH 145 146
ENDBRANCH 144 145
ENDBRANCH 143 144
ENDBRANCH  47 143
TORSDOF 35
