REMARK  Name = DB14859
REMARK                            x       y       z     vdW  Elec       q    Type
REMARK                         _______ _______ _______ _____ _____    ______ ____
ROOT
ATOM      1  P   LIG    1        2.156  -0.108   0.329  0.00  0.00    +0.462 P 
ATOM      2  O   LIG    1        2.645   0.731   1.457  0.00  0.00    -0.228 OA
ENDROOT
BRANCH   1   3
ATOM      3  N   LIG    1        0.483  -0.081   0.033  0.00  0.00    -0.199 NA
ATOM      4  H   LIG    1       -0.045  -0.951  -0.039  0.00  0.00    +0.135 HD
BRANCH   3   6
ATOM      5  C   LIG    1       -1.108   1.150  -1.428  0.00  0.00    +0.036 C 
ATOM      6  C   LIG    1       -0.278   1.158  -0.130  0.00  0.00    +0.171 C 
BRANCH   6   7
ATOM      7  C   LIG    1       -1.180   1.424   1.058  0.00  0.00    +0.325 C 
ATOM      8  O   LIG    1       -1.715   0.533   1.725  0.00  0.00    -0.249 OA
BRANCH   7   9
ATOM      9  O   LIG    1       -1.329   2.756   1.271  0.00  0.00    -0.459 OA
BRANCH   9  10
ATOM     10  C   LIG    1       -2.158   3.262   2.318  0.00  0.00    +0.267 C 
BRANCH  10  11
ATOM     11  C   LIG    1       -3.639   3.132   1.980  0.00  0.00    -0.010 A 
ATOM     12  C   LIG    1       -4.148   3.739   0.829  0.00  0.00    +0.007 A 
ATOM     13  C   LIG    1       -5.501   3.619   0.522  0.00  0.00    +0.000 A 
ATOM     14  C   LIG    1       -6.339   2.895   1.369  0.00  0.00    +0.000 A 
ATOM     15  C   LIG    1       -5.836   2.291   2.519  0.00  0.00    +0.000 A 
ATOM     16  C   LIG    1       -4.483   2.410   2.826  0.00  0.00    +0.007 A 
ENDBRANCH  10  11
ENDBRANCH   9  10
ENDBRANCH   7   9
ENDBRANCH   6   7
ENDBRANCH   3   6
ENDBRANCH   1   3
BRANCH   1  17
ATOM     17  O   LIG    1        2.782   0.274  -1.129  0.00  0.00    -0.412 OA
BRANCH  17  18
ATOM     18  C   LIG    1        4.079   0.049  -1.519  0.00  0.00    +0.139 A 
ATOM     19  C   LIG    1        5.149   0.459  -0.719  0.00  0.00    +0.047 A 
ATOM     20  C   LIG    1        6.464   0.236  -1.110  0.00  0.00    +0.004 A 
ATOM     21  C   LIG    1        6.745  -0.380  -2.324  0.00  0.00    +0.009 A 
ATOM     22  C   LIG    1        5.694  -0.779  -3.183  0.00  0.00    -0.014 A 
ATOM     23  C   LIG    1        5.954  -1.385  -4.438  0.00  0.00    +0.008 A 
ATOM     24  C   LIG    1        4.904  -1.767  -5.266  0.00  0.00    +0.001 A 
ATOM     25  C   LIG    1        3.586  -1.563  -4.874  0.00  0.00    +0.001 A 
ATOM     26  C   LIG    1        3.294  -0.974  -3.647  0.00  0.00    +0.012 A 
ATOM     27  C   LIG    1        4.339  -0.565  -2.777  0.00  0.00    +0.024 A 
ENDBRANCH  17  18
ENDBRANCH   1  17
BRANCH   1  28
ATOM     28  O   LIG    1        2.481  -1.700   0.473  0.00  0.00    -0.284 OA
BRANCH  28  29
ATOM     29  C   LIG    1        2.020  -2.438   1.599  0.00  0.00    +0.206 C 
BRANCH  29  30
ATOM     30  C   LIG    1        3.178  -3.217   2.253  0.00  0.00    +0.175 C 
ATOM     31  C   LIG    1        4.349  -2.359   2.752  0.00  0.00    +0.150 C 
ATOM     32  C   LIG    1        5.339  -2.401   1.598  0.00  0.00    +0.088 C 
ATOM     33  C   LIG    1        5.119  -3.819   1.087  0.00  0.00    +0.226 C 
ATOM     34  O   LIG    1        3.750  -4.061   1.258  0.00  0.00    -0.348 OA
BRANCH  33  35
ATOM     35  N   LIG    1        5.564  -4.085  -0.276  0.00  0.00    -0.271 N 
ATOM     36  C   LIG    1        6.919  -4.254  -0.496  0.00  0.00    +0.331 A 
ATOM     37  O   LIG    1        7.804  -4.196   0.359  0.00  0.00    -0.246 OA
ATOM     38  N   LIG    1        7.242  -4.504  -1.807  0.00  0.00    -0.273 N 
ATOM     39  H   LIG    1        8.226  -4.636  -1.987  0.00  0.00    +0.174 HD
ATOM     40  C   LIG    1        6.436  -4.603  -2.906  0.00  0.00    +0.289 A 
ATOM     41  O   LIG    1        6.876  -4.839  -4.029  0.00  0.00    -0.265 OA
ATOM     42  C   LIG    1        5.030  -4.392  -2.599  0.00  0.00    +0.204 A 
ATOM     43  F   LIG    1        4.120  -4.453  -3.595  0.00  0.00    -0.198 F 
ATOM     44  C   LIG    1        4.672  -4.136  -1.325  0.00  0.00    +0.137 A 
ENDBRANCH  33  35
BRANCH  31  45
ATOM     45  O   LIG    1        4.914  -2.860   3.950  0.00  0.00    -0.389 OA
ATOM     46  H   LIG    1        5.186  -3.769   3.803  0.00  0.00    +0.210 HD
ENDBRANCH  31  45
ENDBRANCH  29  30
ENDBRANCH  28  29
ENDBRANCH   1  28
TORSDOF 13
