REMARK  Name = DB14177
REMARK                            x       y       z     vdW  Elec       q    Type
REMARK                         _______ _______ _______ _____ _____    ______ ____
ROOT
ATOM      1  C   LIG    1       -1.971   1.379   0.000  0.00  0.00    +0.059 A 
ATOM      2  C   LIG    1       -2.710   2.572   0.000  0.00  0.00    +0.018 A 
ATOM      3  C   LIG    1       -4.102   2.542   0.000  0.00  0.00    +0.046 A 
ATOM      4  C   LIG    1       -4.768   1.319   0.000  0.00  0.00    +0.117 A 
ATOM      5  C   LIG    1       -4.051   0.126   0.000  0.00  0.00    +0.046 A 
ATOM      6  C   LIG    1       -2.659   0.154   0.000  0.00  0.00    +0.018 A 
ENDROOT
BRANCH   1   7
ATOM      7  C   LIG    1       -0.471   1.447   0.000  0.00  0.00    +0.339 C 
ATOM      8  O   LIG    1        0.159   2.509   0.000  0.00  0.00    -0.245 OA
BRANCH   7   9
ATOM      9  O   LIG    1        0.120   0.226   0.000  0.00  0.00    -0.461 OA
BRANCH   9  10
ATOM     10  C   LIG    1        1.537   0.095   0.000  0.00  0.00    +0.232 C 
BRANCH  10  11
ATOM     11  C   LIG    1        1.912  -1.393   0.000  0.00  0.00    +0.038 C 
ATOM     12  C   LIG    1        3.430  -1.617   0.000  0.00  0.00    +0.007 C 
ENDBRANCH  10  11
ENDBRANCH   9  10
ENDBRANCH   7   9
ENDBRANCH   1   7
BRANCH   4  13
ATOM     13  O   LIG    1       -6.137   1.290   0.000  0.00  0.00    -0.507 OA
ATOM     14  H   LIG    1       -6.529   2.166   0.000  0.00  0.00    +0.292 HD
ENDBRANCH   4  13
TORSDOF 5
