REMARK  Name = DB14482
REMARK                            x       y       z     vdW  Elec       q    Type
REMARK                         _______ _______ _______ _____ _____    ______ ____
ROOT
ATOM      1  O   LIG    1        1.619  -2.094  -1.154  0.00  0.00    -0.445 OA
ATOM      2  C   LIG    1        2.055  -1.357  -0.017  0.00  0.00    +0.276 C 
ATOM      3  C   LIG    1        3.557  -1.441  -0.141  0.00  0.00    +0.186 C 
ATOM      4  C   LIG    1        3.892  -2.121  -1.241  0.00  0.00    +0.244 C 
ATOM      5  C   LIG    1        2.662  -2.537  -1.896  0.00  0.00    +0.378 C 
ATOM      6  O   LIG    1        2.548  -3.186  -2.936  0.00  0.00    -0.241 OA
ENDROOT
BRANCH   4   7
ATOM      7  O   LIG    1        5.085  -2.475  -1.799  0.00  0.00    -0.499 OA
ATOM      8  H   LIG    1        4.924  -2.974  -2.603  0.00  0.00    +0.293 HD
ENDBRANCH   4   7
BRANCH   3   9
ATOM      9  O   LIG    1        4.318  -0.921   0.761  0.00  0.00    -0.504 OA
ATOM     10  H   LIG    1        5.249  -0.977   0.677  0.00  0.00    +0.292 HD
ENDBRANCH   3   9
BRANCH   2  11
ATOM     11  C   LIG    1        1.446   0.077  -0.036  0.00  0.00    +0.188 C 
BRANCH  11  12
ATOM     12  O   LIG    1        1.915   0.819  -1.152  0.00  0.00    -0.385 OA
ATOM     13  H   LIG    1        2.875   0.801  -1.145  0.00  0.00    +0.210 HD
ENDBRANCH  11  12
BRANCH  11  14
ATOM     14  C   LIG    1       -0.099   0.068  -0.031  0.00  0.00    +0.191 C 
BRANCH  14  15
ATOM     15  O   LIG    1       -0.627   1.348   0.259  0.00  0.00    -0.392 OA
ATOM     16  H   LIG    1       -1.585   1.299   0.220  0.00  0.00    +0.210 HD
ENDBRANCH  14  15
ENDBRANCH  11  14
ENDBRANCH   2  11
TORSDOF 6
