REMARK  Name = DB14787
REMARK                            x       y       z     vdW  Elec       q    Type
REMARK                         _______ _______ _______ _____ _____    ______ ____
ROOT
ATOM      1  C   LIG    1       -0.644   1.120   0.066  0.00  0.00    +0.163 A 
ATOM      2  C   LIG    1       -0.061  -0.156   0.125  0.00  0.00    +0.162 A 
ATOM      3  C   LIG    1       -0.888  -1.292   0.166  0.00  0.00    +0.051 A 
ATOM      4  C   LIG    1       -2.274  -1.166   0.142  0.00  0.00    +0.030 A 
ATOM      5  C   LIG    1       -2.859   0.102   0.078  0.00  0.00    +0.055 A 
ATOM      6  C   LIG    1       -2.045   1.239   0.040  0.00  0.00    +0.075 A 
ENDROOT
BRANCH   5   7
ATOM      7  N   LIG    1       -4.262   0.233   0.042  0.00  0.00    -0.267 N 
ATOM      8  C   LIG    1       -4.900   0.541   1.245  0.00  0.00    +0.273 A 
ATOM      9  O   LIG    1       -4.320   0.695   2.325  0.00  0.00    -0.266 OA
ATOM     10  C   LIG    1       -6.339   0.651   1.031  0.00  0.00    +0.103 A 
ATOM     11  S   LIG    1       -7.521   1.024   2.237  0.00  0.00    -0.081 S 
ATOM     12  C   LIG    1       -8.814   0.925   1.061  0.00  0.00    +0.022 A 
ATOM     13  C   LIG    1       -8.300   0.602  -0.200  0.00  0.00    +0.044 A 
ATOM     14  C   LIG    1       -6.908   0.449  -0.227  0.00  0.00    +0.086 A 
ATOM     15  N   LIG    1       -6.172   0.142  -1.335  0.00  0.00    -0.236 NA
ATOM     16  C   LIG    1       -4.896   0.043  -1.186  0.00  0.00    +0.207 A 
BRANCH  12  17
ATOM     17  C   LIG    1      -10.242   1.151   1.463  0.00  0.00    -0.011 A 
ATOM     18  C   LIG    1      -10.582   1.905   2.595  0.00  0.00    +0.010 A 
ATOM     19  C   LIG    1      -11.918   2.102   2.936  0.00  0.00    +0.020 A 
ATOM     20  C   LIG    1      -12.922   1.547   2.147  0.00  0.00    +0.041 A 
ATOM     21 CL   LIG    1      -14.578   1.791   2.570  0.00  0.00    -0.084 Cl
ATOM     22  C   LIG    1      -12.599   0.797   1.018  0.00  0.00    +0.020 A 
ATOM     23  C   LIG    1      -11.263   0.602   0.677  0.00  0.00    +0.010 A 
ENDBRANCH  12  17
ENDBRANCH   5   7
BRANCH   1  25
ATOM     24  C   LIG    1       -0.313   3.521  -0.031  0.00  0.00    +0.277 C 
ATOM     25  O   LIG    1        0.217   2.203   0.037  0.00  0.00    -0.491 OA
ENDBRANCH   1  25
BRANCH   2  26
ATOM     26  O   LIG    1        1.321  -0.213   0.140  0.00  0.00    -0.486 OA
BRANCH  26  27
ATOM     27  C   LIG    1        1.980  -1.476   0.167  0.00  0.00    +0.261 C 
BRANCH  27  28
ATOM     28  C   LIG    1        3.501  -1.265   0.084  0.00  0.00    +0.171 C 
BRANCH  28  29
ATOM     29  C   LIG    1        4.291  -2.574   0.257  0.00  0.00    +0.022 C 
ATOM     30  C   LIG    1        5.771  -2.522   0.541  0.00  0.00    +0.006 C 
ATOM     31  C   LIG    1        4.802  -2.982   1.616  0.00  0.00    +0.006 C 
ENDBRANCH  28  29
BRANCH  28  32
ATOM     32  O   LIG    1        3.835  -0.735  -1.187  0.00  0.00    -0.280 OA
BRANCH  32  33
ATOM     33  P   LIG    1        4.425   0.913  -1.380  0.00  0.00    +0.473 P 
ATOM     34  O   LIG    1        4.678   1.085  -2.889  0.00  0.00    -0.228 OA
BRANCH  33  35
ATOM     35  O   LIG    1        5.716   0.996  -0.544  0.00  0.00    -0.303 OA
ATOM     36  H   LIG    1        5.502   0.881   0.395  0.00  0.00    +0.222 HD
ENDBRANCH  33  35
BRANCH  33  37
ATOM     37  O   LIG    1        3.310   1.833  -0.852  0.00  0.00    -0.303 OA
ATOM     38  H   LIG    1        3.192   1.685   0.100  0.00  0.00    +0.222 HD
ENDBRANCH  33  37
ENDBRANCH  32  33
ENDBRANCH  28  32
ENDBRANCH  27  28
ENDBRANCH  26  27
ENDBRANCH   2  26
TORSDOF 11
