REMARK  Name = DB14765
REMARK                            x       y       z     vdW  Elec       q    Type
REMARK                         _______ _______ _______ _____ _____    ______ ____
ROOT
ATOM      1  O   LIG    1       -0.566   1.108   0.622  0.00  0.00    -0.270 OA
ATOM      2  C   LIG    1       -0.004   0.066   0.284  0.00  0.00    +0.252 C 
ATOM      3  N   LIG    1       -0.657  -1.076  -0.039  0.00  0.00    -0.281 N 
ATOM      4  H   LIG    1       -0.073  -1.852  -0.313  0.00  0.00    +0.155 HD
ENDROOT
BRANCH   2   5
ATOM      5  C   LIG    1        1.518  -0.006   0.204  0.00  0.00    +0.077 A 
ATOM      6  C   LIG    1        2.349   1.139   0.049  0.00  0.00    +0.131 A 
ATOM      7  N   LIG    1        3.709   1.036   0.018  0.00  0.00    -0.240 NA
ATOM      8  C   LIG    1        4.288  -0.181   0.124  0.00  0.00    +0.113 A 
ATOM      9  C   LIG    1        3.552  -1.349   0.269  0.00  0.00    +0.021 A 
ATOM     10  C   LIG    1        2.164  -1.254   0.311  0.00  0.00    +0.018 A 
BRANCH   6  11
ATOM     11  N   LIG    1        1.802   2.432  -0.107  0.00  0.00    -0.324 N 
ATOM     12  H   LIG    1        0.807   2.525   0.046  0.00  0.00    +0.148 HD
BRANCH  11  13
ATOM     13  C   LIG    1        2.599   3.657  -0.054  0.00  0.00    +0.138 C 
BRANCH  13  14
ATOM     14  C   LIG    1        3.372   3.901  -1.345  0.00  0.00    -0.028 A 
ATOM     15  C   LIG    1        2.697   4.160  -2.544  0.00  0.00    +0.025 A 
ATOM     16  C   LIG    1        3.447   4.389  -3.699  0.00  0.00    +0.111 A 
ATOM     17  N   LIG    1        4.805   4.376  -3.713  0.00  0.00    -0.263 NA
ATOM     18  C   LIG    1        5.446   4.129  -2.542  0.00  0.00    +0.111 A 
ATOM     19  C   LIG    1        4.771   3.890  -1.343  0.00  0.00    +0.025 A 
ENDBRANCH  13  14
ENDBRANCH  11  13
ENDBRANCH   6  11
ENDBRANCH   2   5
BRANCH   3  20
ATOM     20  C   LIG    1       -2.034  -1.374  -0.032  0.00  0.00    +0.034 A 
ATOM     21  C   LIG    1       -3.055  -0.470   0.303  0.00  0.00    +0.023 A 
ATOM     22  C   LIG    1       -4.384  -0.883   0.289  0.00  0.00    +0.007 A 
ATOM     23  C   LIG    1       -4.721  -2.196  -0.063  0.00  0.00    -0.027 A 
ATOM     24  C   LIG    1       -3.698  -3.093  -0.392  0.00  0.00    +0.007 A 
ATOM     25  C   LIG    1       -2.368  -2.684  -0.380  0.00  0.00    +0.023 A 
BRANCH  23  26
ATOM     26  C   LIG    1       -6.188  -2.656  -0.055  0.00  0.00    +0.082 C 
ATOM     27  C   LIG    1       -6.551  -3.717  -1.120  0.00  0.00    +0.026 C 
ATOM     28  C   LIG    1       -8.080  -3.692  -1.252  0.00  0.00    +0.002 C 
ATOM     29  C   LIG    1       -8.520  -2.303  -0.768  0.00  0.00    +0.002 C 
ATOM     30  C   LIG    1       -7.228  -1.564  -0.393  0.00  0.00    +0.026 C 
BRANCH  26  31
ATOM     31  C   LIG    1       -6.473  -3.199   1.290  0.00  0.00    +0.074 C 
ATOM     32  N   LIG    1       -6.696  -3.624   2.344  0.00  0.00    -0.196 NA
ENDBRANCH  26  31
ENDBRANCH  23  26
ENDBRANCH   3  20
TORSDOF 7
