REMARK  Name = DB14986
REMARK                            x       y       z     vdW  Elec       q    Type
REMARK                         _______ _______ _______ _____ _____    ______ ____
ROOT
ATOM      1  C   LIG    1       -2.408  -1.765   0.083  0.00  0.00    +0.020 C 
ATOM      2  C   LIG    1       -1.900  -1.031  -1.198  0.00  0.00    +0.008 C 
ATOM      3  C   LIG    1       -0.385  -0.698  -1.212  0.00  0.00    +0.005 C 
ATOM      4  C   LIG    1        0.077   0.046   0.066  0.00  0.00    +0.001 C 
ATOM      5  C   LIG    1       -0.303  -0.859   1.270  0.00  0.00    +0.005 C 
ATOM      6  C   LIG    1       -1.826  -1.072   1.348  0.00  0.00    +0.008 C 
ENDROOT
BRANCH   1   8
ATOM      7  C   LIG    1       -1.300  -3.950  -0.739  0.00  0.00    +0.024 A 
ATOM      8  C   LIG    1       -2.199  -3.298   0.116  0.00  0.00    -0.034 A 
ATOM      9  C   LIG    1       -2.957  -4.105   1.037  0.00  0.00    +0.007 A 
ATOM     10  C   LIG    1       -3.942  -3.595   1.933  0.00  0.00    +0.048 A 
ATOM     11  C   LIG    1       -4.630  -4.441   2.799  0.00  0.00    +0.124 A 
ATOM     12  F   LIG    1       -5.556  -3.929   3.640  0.00  0.00    -0.205 F 
ATOM     13  C   LIG    1       -4.372  -5.806   2.806  0.00  0.00    +0.040 A 
ATOM     14  C   LIG    1       -3.426  -6.351   1.944  0.00  0.00    +0.031 A 
ATOM     15  C   LIG    1       -2.711  -5.517   1.050  0.00  0.00    +0.071 A 
ATOM     16  N   LIG    1       -1.808  -6.106   0.221  0.00  0.00    -0.255 NA
ATOM     17  C   LIG    1       -1.135  -5.326  -0.651  0.00  0.00    +0.112 A 
ENDBRANCH   1   8
BRANCH   4  18
ATOM     18  C   LIG    1        1.596   0.428   0.018  0.00  0.00    +0.075 C 
ATOM     19  C   LIG    1        1.954   1.349  -1.173  0.00  0.00    +0.017 C 
BRANCH  18  20
ATOM     20  C   LIG    1        2.083   1.093   1.327  0.00  0.00    +0.220 C 
ATOM     21  O   LIG    1        1.574   2.155   1.687  0.00  0.00    -0.275 OA
ATOM     22  N   LIG    1        3.060   0.434   1.990  0.00  0.00    -0.285 N 
ATOM     23  H   LIG    1        3.397  -0.411   1.552  0.00  0.00    +0.155 HD
BRANCH  22  24
ATOM     24  C   LIG    1        3.704   0.748   3.202  0.00  0.00    +0.033 A 
ATOM     25  C   LIG    1        3.351   1.812   4.049  0.00  0.00    +0.025 A 
ATOM     26  C   LIG    1        4.057   2.025   5.230  0.00  0.00    +0.022 A 
ATOM     27  C   LIG    1        5.111   1.181   5.572  0.00  0.00    +0.041 A 
ATOM     28 CL   LIG    1        5.982   1.447   7.039  0.00  0.00    -0.084 Cl
ATOM     29  C   LIG    1        5.464   0.121   4.741  0.00  0.00    +0.022 A 
ATOM     30  C   LIG    1        4.761  -0.094   3.559  0.00  0.00    +0.025 A 
ENDBRANCH  22  24
ENDBRANCH  18  20
ENDBRANCH   4  18
TORSDOF 4
