REMARK  Name = DB14642
REMARK                            x       y       z     vdW  Elec       q    Type
REMARK                         _______ _______ _______ _____ _____    ______ ____
ROOT
ATOM      1  S   LIG    1        1.649   1.438   2.733  0.00  0.00    -0.091 S 
ATOM      2  C   LIG    1        2.243   0.053   1.720  0.00  0.00    +0.112 C 
ATOM      3  C   LIG    1        1.575  -0.156   0.349  0.00  0.00    +0.170 C 
ATOM      4  N   LIG    1        1.788   1.049  -0.454  0.00  0.00    -0.302 N 
ATOM      5  H   LIG    1        2.150   1.848   0.047  0.00  0.00    +0.150 HD
ATOM      6  C   LIG    1        1.564   1.154  -1.776  0.00  0.00    +0.234 C 
ATOM      7  C   LIG    1        1.937   2.512  -2.407  0.00  0.00    +0.168 C 
ATOM      8  N   LIG    1        3.314   2.900  -2.057  0.00  0.00    -0.302 N 
ATOM      9  H   LIG    1        3.393   3.730  -1.487  0.00  0.00    +0.150 HD
ATOM     10  C   LIG    1        4.437   2.228  -2.371  0.00  0.00    +0.234 C 
ATOM     11  C   LIG    1        5.744   2.792  -1.795  0.00  0.00    +0.159 C 
ATOM     12  N   LIG    1        6.400   1.778  -0.971  0.00  0.00    -0.302 N 
ATOM     13  H   LIG    1        7.139   1.256  -1.420  0.00  0.00    +0.150 HD
ATOM     14  C   LIG    1        6.046   1.463   0.287  0.00  0.00    +0.234 C 
ATOM     15  C   LIG    1        6.803   0.281   0.906  0.00  0.00    +0.163 C 
ATOM     16  N   LIG    1        6.963   0.446   2.353  0.00  0.00    -0.302 N 
ATOM     17  H   LIG    1        6.157   0.795   2.852  0.00  0.00    +0.150 HD
ATOM     18  C   LIG    1        8.088   0.156   3.032  0.00  0.00    +0.234 C 
ATOM     19  C   LIG    1        8.105   0.373   4.562  0.00  0.00    +0.163 C 
ATOM     20  N   LIG    1        6.818   0.750   5.171  0.00  0.00    -0.302 N 
ATOM     21  H   LIG    1        6.803   1.674   5.580  0.00  0.00    +0.150 HD
ATOM     22  C   LIG    1        5.711  -0.010   5.309  0.00  0.00    +0.231 C 
ATOM     23  C   LIG    1        4.494   0.558   6.093  0.00  0.00    +0.148 C 
ATOM     24  C   LIG    1        3.230   0.659   5.207  0.00  0.00    +0.109 C 
ATOM     25  O   LIG    1        5.615  -1.149   4.851  0.00  0.00    -0.274 OA
ATOM     26  O   LIG    1        9.115  -0.258   2.492  0.00  0.00    -0.274 OA
ATOM     27  O   LIG    1        5.157   2.029   0.923  0.00  0.00    -0.274 OA
ATOM     28  O   LIG    1        4.473   1.214  -3.067  0.00  0.00    -0.274 OA
ATOM     29  O   LIG    1        1.131   0.240  -2.479  0.00  0.00    -0.274 OA
ATOM     30  S   LIG    1        3.272   1.895   3.873  0.00  0.00    -0.091 S 
ENDROOT
BRANCH   3  31
ATOM     31  C   LIG    1        0.079  -0.555   0.470  0.00  0.00    +0.237 C 
ATOM     32  N   LIG    1       -0.252  -1.870   0.412  0.00  0.00    -0.288 N 
ATOM     33  C   LIG    1       -1.625  -2.318   0.666  0.00  0.00    +0.109 C 
ATOM     34  C   LIG    1       -1.651  -3.799   0.306  0.00  0.00    +0.021 C 
ATOM     35  C   LIG    1       -0.210  -4.231   0.528  0.00  0.00    +0.033 C 
ATOM     36  C   LIG    1        0.635  -3.014   0.117  0.00  0.00    +0.162 C 
ATOM     37  O   LIG    1       -0.753   0.334   0.664  0.00  0.00    -0.274 OA
BRANCH  36  38
ATOM     38  C   LIG    1        1.054  -3.072  -1.367  0.00  0.00    +0.234 C 
ATOM     39  N   LIG    1        2.374  -2.992  -1.599  0.00  0.00    -0.302 N 
ATOM     40  H   LIG    1        3.010  -2.941  -0.815  0.00  0.00    +0.150 HD
ATOM     41  O   LIG    1        0.198  -3.155  -2.248  0.00  0.00    -0.274 OA
BRANCH  39  42
ATOM     42  C   LIG    1        2.994  -2.908  -2.918  0.00  0.00    +0.159 C 
BRANCH  42  43
ATOM     43  C   LIG    1        3.014  -4.287  -3.596  0.00  0.00    +0.234 C 
ATOM     44  N   LIG    1        2.524  -4.334  -4.846  0.00  0.00    -0.305 N 
ATOM     45  H   LIG    1        2.178  -3.485  -5.270  0.00  0.00    +0.149 HD
ATOM     46  O   LIG    1        3.465  -5.258  -2.987  0.00  0.00    -0.274 OA
BRANCH  44  47
ATOM     47  C   LIG    1        2.407  -5.560  -5.641  0.00  0.00    +0.199 C 
BRANCH  47  48
ATOM     48  C   LIG    1        1.187  -6.437  -5.276  0.00  0.00    +0.228 C 
ATOM     49  N   LIG    1        0.292  -6.009  -4.377  0.00  0.00    -0.328 N 
ATOM     50  H   LIG    1       -0.506  -6.582  -4.145  0.00  0.00    +0.145 HD
ATOM     51  H   LIG    1        0.412  -5.116  -3.921  0.00  0.00    +0.145 HD
ATOM     52  O   LIG    1        1.045  -7.521  -5.836  0.00  0.00    -0.274 OA
ENDBRANCH  47  48
ENDBRANCH  44  47
ENDBRANCH  42  43
BRANCH  42  53
ATOM     53  C   LIG    1        4.406  -2.315  -2.739  0.00  0.00    +0.032 C 
BRANCH  53  54
ATOM     54  C   LIG    1        5.140  -1.984  -4.049  0.00  0.00    +0.003 C 
BRANCH  54  55
ATOM     55  C   LIG    1        6.538  -1.392  -3.796  0.00  0.00    +0.015 C 
BRANCH  55  56
ATOM     56  C   LIG    1        7.198  -0.819  -5.059  0.00  0.00    +0.077 C 
BRANCH  56  57
ATOM     57  N   LIG    1        7.529  -1.876  -5.996  0.00  0.00    -0.330 NA
ATOM     58  H   LIG    1        6.691  -2.375  -6.260  0.00  0.00    +0.118 HD
ATOM     59  H   LIG    1        8.135  -2.549  -5.549  0.00  0.00    +0.118 HD
ENDBRANCH  56  57
ENDBRANCH  55  56
ENDBRANCH  54  55
ENDBRANCH  53  54
ENDBRANCH  42  53
ENDBRANCH  39  42
ENDBRANCH  36  38
ENDBRANCH   3  31
BRANCH  23  60
ATOM     60  N   LIG    1        4.821   1.834   6.765  0.00  0.00    -0.319 NA
ATOM     61  H   LIG    1        4.222   1.978   7.565  0.00  0.00    +0.119 HD
ATOM     62  H   LIG    1        4.653   2.614   6.146  0.00  0.00    +0.119 HD
ENDBRANCH  23  60
BRANCH   7  63
ATOM     63  C   LIG    1        1.696   2.547  -3.943  0.00  0.00    +0.127 C 
BRANCH  63  64
ATOM     64  C   LIG    1        1.984   3.904  -4.601  0.00  0.00    +0.213 C 
ATOM     65  N   LIG    1        2.373   3.882  -5.877  0.00  0.00    -0.329 N 
ATOM     66  H   LIG    1        2.473   3.005  -6.367  0.00  0.00    +0.145 HD
ATOM     67  H   LIG    1        2.569   4.746  -6.363  0.00  0.00    +0.145 HD
ATOM     68  O   LIG    1        1.846   4.954  -3.977  0.00  0.00    -0.276 OA
ENDBRANCH  63  64
ENDBRANCH   7  63
BRANCH  11  69
ATOM     69  C   LIG    1        6.698   3.230  -2.931  0.00  0.00    +0.041 C 
BRANCH  69  70
ATOM     70  C   LIG    1        8.039   3.858  -2.490  0.00  0.00    +0.098 C 
BRANCH  70  71
ATOM     71  C   LIG    1        7.886   5.123  -1.639  0.00  0.00    +0.211 C 
ATOM     72  N   LIG    1        8.094   6.293  -2.248  0.00  0.00    -0.329 N 
ATOM     73  H   LIG    1        8.014   7.156  -1.729  0.00  0.00    +0.145 HD
ATOM     74  H   LIG    1        8.335   6.325  -3.228  0.00  0.00    +0.145 HD
ATOM     75  O   LIG    1        7.601   5.046  -0.446  0.00  0.00    -0.276 OA
ENDBRANCH  70  71
ENDBRANCH  69  70
ENDBRANCH  11  69
BRANCH  15  76
ATOM     76  C   LIG    1        6.086  -1.051   0.591  0.00  0.00    +0.067 C 
BRANCH  76  77
ATOM     77  C   LIG    1        6.917  -2.299   0.824  0.00  0.00    -0.045 A 
ATOM     78  C   LIG    1        7.897  -2.680  -0.117  0.00  0.00    +0.004 A 
ATOM     79  C   LIG    1        8.726  -3.763   0.144  0.00  0.00    +0.000 A 
ATOM     80  C   LIG    1        8.613  -4.458   1.341  0.00  0.00    +0.000 A 
ATOM     81  C   LIG    1        7.677  -4.072   2.293  0.00  0.00    +0.000 A 
ATOM     82  C   LIG    1        6.837  -2.994   2.048  0.00  0.00    +0.004 A 
ENDBRANCH  76  77
ENDBRANCH  15  76
BRANCH  19  83
ATOM     83  C   LIG    1        8.744  -0.833   5.300  0.00  0.00    +0.067 C 
BRANCH  83  84
ATOM     84  C   LIG    1        8.883  -0.661   6.803  0.00  0.00    -0.045 A 
ATOM     85  C   LIG    1        9.846   0.228   7.326  0.00  0.00    +0.007 A 
ATOM     86  C   LIG    1        9.970   0.398   8.718  0.00  0.00    +0.045 A 
ATOM     87  C   LIG    1        9.132  -0.320   9.594  0.00  0.00    +0.117 A 
ATOM     88  C   LIG    1        8.172  -1.211   9.076  0.00  0.00    +0.045 A 
ATOM     89  C   LIG    1        8.048  -1.382   7.684  0.00  0.00    +0.007 A 
BRANCH  87  90
ATOM     90  O   LIG    1        9.250  -0.154  10.943  0.00  0.00    -0.507 OA
ATOM     91  H   LIG    1        9.932   0.476  11.186  0.00  0.00    +0.292 HD
ENDBRANCH  87  90
ENDBRANCH  83  84
ENDBRANCH  19  83
TORSDOF 22
