REMARK  Name = DB14027
REMARK                            x       y       z     vdW  Elec       q    Type
REMARK                         _______ _______ _______ _____ _____    ______ ____
ROOT
ATOM      1  N   UNK A  1        1.080   0.145  -0.617  0.00  0.00    -0.303 N 
ATOM      2  H   UNK A  1        1.278  -0.385   0.220  0.00  0.00    +0.149 HD
ATOM      3  C   UNK A  1        2.087   0.454  -1.452  0.00  0.00    +0.231 C 
ATOM      4  O   UNK A  1        1.930   1.084  -2.499  0.00  0.00    -0.274 OA
ENDROOT
BRANCH   1   5
ATOM      5  C   UNK A  1       -0.294   0.633  -0.749  0.00  0.00    +0.159 C 
BRANCH   5   8
ATOM      6  N   UNK A  1       -1.165   2.824  -1.399  0.00  0.00    -0.303 N 
ATOM      7  H   UNK A  1       -1.633   2.317  -2.136  0.00  0.00    +0.149 HD
ATOM      8  C   UNK A  1       -0.378   2.158  -0.538  0.00  0.00    +0.234 C 
ATOM      9  O   UNK A  1        0.236   2.681   0.394  0.00  0.00    -0.274 OA
BRANCH   6  10
ATOM     10  C   UNK A  1       -1.458   4.252  -1.323  0.00  0.00    +0.156 C 
ATOM     11  C   UNK A  1       -2.021   4.713  -2.678  0.00  0.00    +0.038 C 
BRANCH  10  14
ATOM     12  N   UNK A  1       -1.913   5.147   0.906  0.00  0.00    -0.303 N 
ATOM     13  H   UNK A  1       -0.926   5.361   0.922  0.00  0.00    +0.149 HD
ATOM     14  C   UNK A  1       -2.438   4.550  -0.176  0.00  0.00    +0.234 C 
ATOM     15  O   UNK A  1       -3.620   4.227  -0.291  0.00  0.00    -0.274 OA
BRANCH  12  16
ATOM     16  C   UNK A  1       -2.668   5.555   2.089  0.00  0.00    +0.156 C 
ATOM     17  C   UNK A  1       -1.701   5.671   3.280  0.00  0.00    +0.038 C 
BRANCH  16  20
ATOM     18  N   UNK A  1       -4.702   6.754   1.477  0.00  0.00    -0.302 N 
ATOM     19  H   UNK A  1       -5.123   5.836   1.440  0.00  0.00    +0.150 HD
ATOM     20  C   UNK A  1       -3.410   6.873   1.820  0.00  0.00    +0.234 C 
ATOM     21  O   UNK A  1       -2.808   7.945   1.899  0.00  0.00    -0.274 OA
BRANCH  18  22
ATOM     22  C   UNK A  1       -5.578   7.864   1.106  0.00  0.00    +0.159 C 
BRANCH  22  25
ATOM     23  N   UNK A  1       -7.892   8.382   1.670  0.00  0.00    -0.302 N 
ATOM     24  H   UNK A  1       -7.541   9.308   1.868  0.00  0.00    +0.150 HD
ATOM     25  C   UNK A  1       -7.044   7.431   1.247  0.00  0.00    +0.234 C 
ATOM     26  O   UNK A  1       -7.372   6.277   0.967  0.00  0.00    -0.274 OA
BRANCH  23  27
ATOM     27  C   UNK A  1       -9.326   8.191   1.894  0.00  0.00    +0.159 C 
BRANCH  27  30
ATOM     28  N   UNK A  1      -11.386   9.008   0.887  0.00  0.00    -0.302 N 
ATOM     29  H   UNK A  1      -11.723   8.071   1.054  0.00  0.00    +0.150 HD
ATOM     30  C   UNK A  1      -10.128   9.322   1.237  0.00  0.00    +0.234 C 
ATOM     31  O   UNK A  1       -9.621  10.436   1.087  0.00  0.00    -0.274 OA
BRANCH  28  32
ATOM     32  C   UNK A  1      -12.366   9.951   0.350  0.00  0.00    +0.163 C 
BRANCH  32  35
ATOM     33  N   UNK A  1      -12.818  12.252   1.038  0.00  0.00    -0.302 N 
ATOM     34  H   UNK A  1      -12.496  12.499   0.113  0.00  0.00    +0.150 HD
ATOM     35  C   UNK A  1      -12.833  10.963   1.411  0.00  0.00    +0.234 C 
ATOM     36  O   UNK A  1      -13.217  10.557   2.508  0.00  0.00    -0.274 OA
BRANCH  33  37
ATOM     37  C   UNK A  1      -13.313  13.356   1.857  0.00  0.00    +0.162 C 
BRANCH  37  40
ATOM     38  N   UNK A  1      -15.673  13.546   2.482  0.00  0.00    -0.303 N 
ATOM     39  H   UNK A  1      -15.360  13.316   3.414  0.00  0.00    +0.149 HD
ATOM     40  C   UNK A  1      -14.782  13.619   1.482  0.00  0.00    +0.234 C 
ATOM     41  O   UNK A  1      -15.069  13.886   0.316  0.00  0.00    -0.274 OA
BRANCH  38  42
ATOM     42  C   UNK A  1      -17.096  13.857   2.340  0.00  0.00    +0.156 C 
ATOM     43  C   UNK A  1      -17.869  13.132   3.451  0.00  0.00    +0.038 C 
BRANCH  42  46
ATOM     44  N   UNK A  1      -18.351  15.838   1.653  0.00  0.00    -0.302 N 
ATOM     45  H   UNK A  1      -18.884  15.197   1.083  0.00  0.00    +0.150 HD
ATOM     46  C   UNK A  1      -17.342  15.373   2.408  0.00  0.00    +0.234 C 
ATOM     47  O   UNK A  1      -16.644  16.071   3.145  0.00  0.00    -0.274 OA
BRANCH  44  48
ATOM     48  C   UNK A  1      -18.768  17.241   1.595  0.00  0.00    +0.163 C 
BRANCH  48  51
ATOM     49  N   UNK A  1      -20.756  18.328   2.495  0.00  0.00    -0.302 N 
ATOM     50  H   UNK A  1      -20.101  18.933   2.970  0.00  0.00    +0.150 HD
ATOM     51  C   UNK A  1      -20.293  17.338   1.715  0.00  0.00    +0.234 C 
ATOM     52  O   UNK A  1      -21.007  16.555   1.087  0.00  0.00    -0.274 OA
BRANCH  49  53
ATOM     53  C   UNK A  1      -22.169  18.669   2.659  0.00  0.00    +0.159 C 
BRANCH  53  56
ATOM     54  N   UNK A  1      -23.857  19.148   0.958  0.00  0.00    -0.302 N 
ATOM     55  H   UNK A  1      -24.351  18.361   1.353  0.00  0.00    +0.150 HD
ATOM     56  C   UNK A  1      -22.664  19.500   1.464  0.00  0.00    +0.234 C 
ATOM     57  O   UNK A  1      -21.985  20.444   1.055  0.00  0.00    -0.274 OA
BRANCH  54  58
ATOM     58  C   UNK A  1      -24.562  19.882  -0.093  0.00  0.00    +0.161 C 
BRANCH  58  61
ATOM     59  N   UNK A  1      -24.872  22.310  -0.150  0.00  0.00    -0.302 N 
ATOM     60  H   UNK A  1      -24.255  22.282  -0.949  0.00  0.00    +0.150 HD
ATOM     61  C   UNK A  1      -25.182  21.168   0.486  0.00  0.00    +0.234 C 
ATOM     62  O   UNK A  1      -25.923  21.097   1.468  0.00  0.00    -0.274 OA
BRANCH  59  63
ATOM     63  C   UNK A  1      -25.415  23.622   0.198  0.00  0.00    +0.159 C 
BRANCH  63  66
ATOM     64  N   UNK A  1      -27.745  24.138   0.713  0.00  0.00    -0.300 N 
ATOM     65  H   UNK A  1      -27.372  24.301   1.637  0.00  0.00    +0.150 HD
ATOM     66  C   UNK A  1      -26.884  23.740  -0.241  0.00  0.00    +0.234 C 
ATOM     67  O   UNK A  1      -27.189  23.490  -1.407  0.00  0.00    -0.274 OA
BRANCH  64  68
ATOM     68  C   UNK A  1      -29.198  24.337   0.585  0.00  0.00    +0.105 C 
ATOM     69  C   UNK A  1      -29.908  23.002   0.207  0.00  0.00    +0.041 C 
ATOM     70  C   UNK A  1      -29.547  25.430  -0.462  0.00  0.00    +0.041 C 
BRANCH  68  71
ATOM     71  C   UNK A  1      -29.585  24.834   2.010  0.00  0.00    +0.237 C 
ATOM     72  N   UNK A  1      -30.062  23.929   2.886  0.00  0.00    -0.302 N 
ATOM     73  H   UNK A  1      -30.205  22.979   2.575  0.00  0.00    +0.150 HD
ATOM     74  O   UNK A  1      -29.302  25.982   2.362  0.00  0.00    -0.273 OA
BRANCH  72  75
ATOM     75  C   UNK A  1      -30.371  24.176   4.299  0.00  0.00    +0.159 C 
BRANCH  75  76
ATOM     76  C   UNK A  1      -29.781  23.039   5.160  0.00  0.00    +0.231 C 
ATOM     77  O   UNK A  1      -29.837  21.870   4.780  0.00  0.00    -0.274 OA
ATOM     78  N   UNK A  1      -29.253  23.390   6.336  0.00  0.00    -0.328 N 
ATOM     79  H   UNK A  1      -28.865  22.684   6.946  0.00  0.00    +0.145 HD
ATOM     80  H   UNK A  1      -29.228  24.358   6.621  0.00  0.00    +0.145 HD
ENDBRANCH  75  76
BRANCH  75  81
ATOM     81  C   UNK A  1      -31.907  24.272   4.488  0.00  0.00    +0.033 C 
BRANCH  81  82
ATOM     82  C   UNK A  1      -32.536  25.552   3.893  0.00  0.00    +0.017 C 
BRANCH  82  83
ATOM     83  C   UNK A  1      -34.069  25.656   4.018  0.00  0.00    +0.084 C 
BRANCH  83  84
ATOM     84  N   UNK A  1      -34.550  25.592   5.412  0.00  0.00    -0.283 NA
ATOM     85  H   UNK A  1      -34.438  26.445   5.941  0.00  0.00    +0.125 HD
BRANCH  84  86
ATOM     86  C   UNK A  1      -35.075  24.529   6.053  0.00  0.00    +0.167 C 
BRANCH  86  87
ATOM     87  N   UNK A  1      -35.253  23.338   5.458  0.00  0.00    -0.297 NA
ATOM     88  H   UNK A  1      -34.991  23.212   4.491  0.00  0.00    +0.121 HD
ATOM     89  H   UNK A  1      -35.652  22.564   5.972  0.00  0.00    +0.121 HD
ENDBRANCH  86  87
BRANCH  86  90
ATOM     90  N   UNK A  1      -35.433  24.666   7.337  0.00  0.00    -0.297 NA
ATOM     91  H   UNK A  1      -35.830  23.886   7.841  0.00  0.00    +0.121 HD
ATOM     92  H   UNK A  1      -35.310  25.552   7.807  0.00  0.00    +0.121 HD
ENDBRANCH  86  90
ENDBRANCH  84  86
ENDBRANCH  83  84
ENDBRANCH  82  83
ENDBRANCH  81  82
ENDBRANCH  75  81
ENDBRANCH  72  75
ENDBRANCH  68  71
ENDBRANCH  64  68
ENDBRANCH  63  66
BRANCH  63  93
ATOM     93  C   UNK A  1      -24.523  24.719  -0.423  0.00  0.00    +0.032 C 
BRANCH  93  94
ATOM     94  C   UNK A  1      -24.974  26.158  -0.109  0.00  0.00    +0.000 C 
BRANCH  94  95
ATOM     95  C   UNK A  1      -23.979  27.215  -0.623  0.00  0.00    -0.019 C 
BRANCH  95  96
ATOM     96  C   UNK A  1      -24.431  28.670  -0.396  0.00  0.00    -0.086 C 
BRANCH  96  97
ATOM     97  N   UNK A  1      -24.475  29.036   1.032  0.00  0.00    +0.378 N 
ATOM     98  H   UNK A  1      -25.134  28.440   1.512  0.00  0.00    -0.090 HD
ATOM     99  H   UNK A  1      -23.558  28.921   1.438  0.00  0.00    -0.090 HD
ATOM    100  H   UNK A  1      -24.766  29.999   1.123  0.00  0.00    -0.090 HD
ENDBRANCH  96  97
ENDBRANCH  95  96
ENDBRANCH  94  95
ENDBRANCH  93  94
ENDBRANCH  63  93
ENDBRANCH  59  63
ENDBRANCH  58  61
BRANCH  58 101
ATOM    101  C   UNK A  1      -25.687  19.010  -0.726  0.00  0.00    +0.012 C 
ATOM    102  C   UNK A  1      -26.625  19.766  -1.694  0.00  0.00    +0.009 C 
ATOM    103  C   UNK A  1      -25.093  17.785  -1.444  0.00  0.00    +0.009 C 
ENDBRANCH  58 101
ENDBRANCH  54  58
ENDBRANCH  53  56
BRANCH  53 104
ATOM    104  C   UNK A  1      -22.342  19.415   4.006  0.00  0.00    +0.034 C 
BRANCH 104 105
ATOM    105  C   UNK A  1      -23.770  19.913   4.343  0.00  0.00    -0.015 C 
ATOM    106  C   UNK A  1      -24.811  18.772   4.367  0.00  0.00    +0.007 C 
ATOM    107  C   UNK A  1      -23.773  20.734   5.651  0.00  0.00    +0.007 C 
ENDBRANCH 104 105
ENDBRANCH  53 104
ENDBRANCH  49  53
ENDBRANCH  48  51
BRANCH  48 108
ATOM    108  C   UNK A  1      -18.288  17.886   0.277  0.00  0.00    +0.069 C 
BRANCH 108 109
ATOM    109  C   UNK A  1      -16.814  17.827   0.002  0.00  0.00    -0.020 A 
ATOM    110  C   UNK A  1      -15.871  18.567   0.627  0.00  0.00    +0.087 A 
ATOM    111  N   UNK A  1      -14.622  18.226   0.150  0.00  0.00    -0.360 N 
ATOM    112  H   UNK A  1      -13.774  18.660   0.485  0.00  0.00    +0.165 HD
ATOM    113  C   UNK A  1      -14.694  17.230  -0.802  0.00  0.00    +0.047 A 
ATOM    114  C   UNK A  1      -13.725  16.550  -1.561  0.00  0.00    +0.026 A 
ATOM    115  C   UNK A  1      -14.137  15.559  -2.471  0.00  0.00    +0.002 A 
ATOM    116  C   UNK A  1      -15.507  15.264  -2.613  0.00  0.00    +0.001 A 
ATOM    117  C   UNK A  1      -16.469  15.949  -1.842  0.00  0.00    +0.010 A 
ATOM    118  C   UNK A  1      -16.090  16.952  -0.918  0.00  0.00    +0.003 A 
ENDBRANCH 108 109
ENDBRANCH  48 108
ENDBRANCH  44  48
ENDBRANCH  42  46
ENDBRANCH  38  42
ENDBRANCH  37  40
BRANCH  37 119
ATOM    119  C   UNK A  1      -12.484  14.656   1.623  0.00  0.00    +0.015 C 
ATOM    120  C   UNK A  1      -13.056  15.898   2.348  0.00  0.00    +0.010 C 
BRANCH 119 121
ATOM    121  C   UNK A  1      -11.002  14.449   2.022  0.00  0.00    +0.002 C 
ATOM    122  C   UNK A  1      -10.065  15.572   1.554  0.00  0.00    +0.004 C 
ENDBRANCH 119 121
ENDBRANCH  37 119
ENDBRANCH  33  37
ENDBRANCH  32  35
BRANCH  32 123
ATOM    123  C   UNK A  1      -13.538   9.162  -0.279  0.00  0.00    +0.067 C 
BRANCH 123 124
ATOM    124  C   UNK A  1      -14.728   9.989  -0.744  0.00  0.00    -0.045 A 
ATOM    125  C   UNK A  1      -14.656  10.713  -1.953  0.00  0.00    +0.004 A 
ATOM    126  C   UNK A  1      -15.703  11.545  -2.327  0.00  0.00    +0.000 A 
ATOM    127  C   UNK A  1      -16.813  11.688  -1.504  0.00  0.00    +0.000 A 
ATOM    128  C   UNK A  1      -16.884  11.007  -0.295  0.00  0.00    +0.000 A 
ATOM    129  C   UNK A  1      -15.847  10.171   0.097  0.00  0.00    +0.004 A 
ENDBRANCH 123 124
ENDBRANCH  32 123
ENDBRANCH  28  32
ENDBRANCH  27  30
BRANCH  27 130
ATOM    130  C   UNK A  1       -9.617   8.141   3.415  0.00  0.00    +0.043 C 
BRANCH 130 131
ATOM    131  C   UNK A  1       -8.968   6.962   4.182  0.00  0.00    +0.123 C 
BRANCH 131 132
ATOM    132  C   UNK A  1       -9.477   5.552   3.827  0.00  0.00    +0.305 C 
ATOM    133  O   UNK A  1       -8.754   4.596   4.182  0.00  0.00    -0.251 OA
BRANCH 132 134
ATOM    134  O   UNK A  1      -10.573   5.431   3.233  0.00  0.00    -0.481 OA
ATOM    135  H   UNK A  1      -10.894   4.579   3.012  0.00  0.00    +0.295 HD
ENDBRANCH 132 134
ENDBRANCH 131 132
ENDBRANCH 130 131
ENDBRANCH  27 130
ENDBRANCH  23  27
ENDBRANCH  22  25
BRANCH  22 136
ATOM    136  C   UNK A  1       -5.234   8.366  -0.320  0.00  0.00    +0.032 C 
BRANCH 136 137
ATOM    137  C   UNK A  1       -5.459   7.341  -1.450  0.00  0.00    +0.000 C 
BRANCH 137 138
ATOM    138  C   UNK A  1       -4.898   7.811  -2.799  0.00  0.00    -0.019 C 
BRANCH 138 139
ATOM    139  C   UNK A  1       -5.144   6.783  -3.915  0.00  0.00    -0.086 C 
BRANCH 139 140
ATOM    140  N   UNK A  1       -4.566   7.220  -5.197  0.00  0.00    +0.378 N 
ATOM    141  H   UNK A  1       -4.984   8.097  -5.474  0.00  0.00    -0.090 HD
ATOM    142  H   UNK A  1       -3.569   7.341  -5.093  0.00  0.00    -0.090 HD
ATOM    143  H   UNK A  1       -4.748   6.523  -5.905  0.00  0.00    -0.090 HD
ENDBRANCH 139 140
ENDBRANCH 138 139
ENDBRANCH 137 138
ENDBRANCH 136 137
ENDBRANCH  22 136
ENDBRANCH  18  22
ENDBRANCH  16  20
ENDBRANCH  12  16
ENDBRANCH  10  14
ENDBRANCH   6  10
ENDBRANCH   5   8
BRANCH   5 144
ATOM    144  C   UNK A  1       -1.192  -0.144   0.239  0.00  0.00    +0.041 C 
BRANCH 144 145
ATOM    145  C   UNK A  1       -2.682   0.269   0.228  0.00  0.00    +0.098 C 
BRANCH 145 146
ATOM    146  C   UNK A  1       -3.558  -0.571   1.162  0.00  0.00    +0.211 C 
ATOM    147  N   UNK A  1       -4.754  -0.065   1.471  0.00  0.00    -0.329 N 
ATOM    148  H   UNK A  1       -5.379  -0.574   2.080  0.00  0.00    +0.145 HD
ATOM    149  H   UNK A  1       -5.042   0.832   1.106  0.00  0.00    +0.145 HD
ATOM    150  O   UNK A  1       -3.181  -1.662   1.587  0.00  0.00    -0.276 OA
ENDBRANCH 145 146
ENDBRANCH 144 145
ENDBRANCH   5 144
ENDBRANCH   1   5
BRANCH   3 151
ATOM    151  C   UNK A  1        3.486  -0.023  -1.044  0.00  0.00    +0.200 C 
BRANCH 151 152
ATOM    152  N   UNK A  1        4.378   1.135  -1.043  0.00  0.00    -0.305 N 
ATOM    153  H   UNK A  1        4.935   1.282  -1.872  0.00  0.00    +0.149 HD
ATOM    154  C   UNK A  1        4.398   2.057  -0.065  0.00  0.00    +0.234 C 
ATOM    155  O   UNK A  1        3.772   1.959   0.992  0.00  0.00    -0.274 OA
BRANCH 154 156
ATOM    156  C   UNK A  1        5.252   3.305  -0.324  0.00  0.00    +0.159 C 
BRANCH 156 157
ATOM    157  N   UNK A  1        4.430   4.475  -0.035  0.00  0.00    -0.302 N 
ATOM    158  H   UNK A  1        3.687   4.326   0.634  0.00  0.00    +0.150 HD
ATOM    159  C   UNK A  1        4.561   5.680  -0.608  0.00  0.00    +0.234 C 
ATOM    160  O   UNK A  1        5.423   5.970  -1.439  0.00  0.00    -0.274 OA
BRANCH 159 161
ATOM    161  C   UNK A  1        3.507   6.715  -0.189  0.00  0.00    +0.159 C 
BRANCH 161 162
ATOM    162  N   UNK A  1        4.033   8.079  -0.186  0.00  0.00    -0.302 N 
ATOM    163  H   UNK A  1        3.705   8.675  -0.933  0.00  0.00    +0.150 HD
ATOM    164  C   UNK A  1        4.811   8.608   0.773  0.00  0.00    +0.234 C 
ATOM    165  O   UNK A  1        5.269   7.971   1.722  0.00  0.00    -0.274 OA
BRANCH 164 166
ATOM    166  C   UNK A  1        5.056  10.122   0.657  0.00  0.00    +0.163 C 
BRANCH 166 167
ATOM    167  N   UNK A  1        3.823  10.842   0.981  0.00  0.00    -0.302 N 
ATOM    168  H   UNK A  1        3.698  11.079   1.955  0.00  0.00    +0.150 HD
ATOM    169  C   UNK A  1        2.898  11.236   0.089  0.00  0.00    +0.236 C 
ATOM    170  O   UNK A  1        2.957  11.012  -1.121  0.00  0.00    -0.274 OA
BRANCH 169 171
ATOM    171  C   UNK A  1        1.711  12.032   0.655  0.00  0.00    +0.184 C 
BRANCH 171 172
ATOM    172  N   UNK A  1        1.770  13.430   0.228  0.00  0.00    -0.300 N 
ATOM    173  H   UNK A  1        1.081  13.714  -0.454  0.00  0.00    +0.150 HD
ATOM    174  C   UNK A  1        2.672  14.322   0.668  0.00  0.00    +0.236 C 
ATOM    175  O   UNK A  1        3.546  14.069   1.497  0.00  0.00    -0.274 OA
BRANCH 174 176
ATOM    176  C   UNK A  1        2.575  15.742   0.077  0.00  0.00    +0.184 C 
BRANCH 176 177
ATOM    177  N   UNK A  1        2.831  16.774   1.085  0.00  0.00    -0.301 N 
ATOM    178  H   UNK A  1        3.658  17.334   0.938  0.00  0.00    +0.150 HD
ATOM    179  C   UNK A  1        2.097  16.968   2.196  0.00  0.00    +0.234 C 
ATOM    180  O   UNK A  1        1.071  16.337   2.461  0.00  0.00    -0.274 OA
BRANCH 179 181
ATOM    181  C   UNK A  1        2.620  18.042   3.170  0.00  0.00    +0.161 C 
BRANCH 181 182
ATOM    182  N   UNK A  1        1.589  18.367   4.155  0.00  0.00    -0.302 N 
ATOM    183  H   UNK A  1        1.259  17.590   4.708  0.00  0.00    +0.150 HD
ATOM    184  C   UNK A  1        1.017  19.569   4.321  0.00  0.00    +0.234 C 
ATOM    185  O   UNK A  1        1.319  20.584   3.692  0.00  0.00    -0.274 OA
BRANCH 184 186
ATOM    186  C   UNK A  1       -0.119  19.610   5.356  0.00  0.00    +0.169 C 
BRANCH 186 187
ATOM    187  N   UNK A  1       -0.180  20.892   6.062  0.00  0.00    -0.302 N 
ATOM    188  H   UNK A  1       -1.002  21.446   5.869  0.00  0.00    +0.150 HD
ATOM    189  C   UNK A  1        0.687  21.328   6.994  0.00  0.00    +0.236 C 
ATOM    190  O   UNK A  1        1.728  20.741   7.292  0.00  0.00    -0.274 OA
BRANCH 189 191
ATOM    191  C   UNK A  1        0.292  22.628   7.726  0.00  0.00    +0.184 C 
BRANCH 191 192
ATOM    192  N   UNK A  1       -1.167  22.711   7.830  0.00  0.00    -0.300 N 
ATOM    193  H   UNK A  1       -1.635  21.836   8.019  0.00  0.00    +0.150 HD
ATOM    194  C   UNK A  1       -1.907  23.806   7.606  0.00  0.00    +0.237 C 
ATOM    195  O   UNK A  1       -1.450  24.926   7.369  0.00  0.00    -0.274 OA
BRANCH 194 196
ATOM    196  C   UNK A  1       -3.433  23.570   7.623  0.00  0.00    +0.187 C 
BRANCH 196 197
ATOM    197  N   UNK A  1       -4.188  24.754   8.037  0.00  0.00    -0.300 N 
ATOM    198  H   UNK A  1       -4.756  25.181   7.320  0.00  0.00    +0.150 HD
ATOM    199  C   UNK A  1       -4.181  25.290   9.268  0.00  0.00    +0.234 C 
ATOM    200  O   UNK A  1       -3.537  24.850  10.222  0.00  0.00    -0.274 OA
BRANCH 199 201
ATOM    201  C   UNK A  1       -5.098  26.504   9.455  0.00  0.00    +0.163 C 
BRANCH 201 202
ATOM    202  N   UNK A  1       -6.424  26.028   9.842  0.00  0.00    -0.302 N 
ATOM    203  H   UNK A  1       -6.467  25.518  10.712  0.00  0.00    +0.150 HD
ATOM    204  C   UNK A  1       -7.542  26.185   9.116  0.00  0.00    +0.236 C 
ATOM    205  O   UNK A  1       -7.601  26.790   8.045  0.00  0.00    -0.274 OA
BRANCH 204 206
ATOM    206  C   UNK A  1       -8.809  25.517   9.684  0.00  0.00    +0.187 C 
BRANCH 206 207
ATOM    207  N   UNK A  1       -9.961  26.416   9.600  0.00  0.00    -0.301 N 
ATOM    208  H   UNK A  1      -10.578  26.270   8.814  0.00  0.00    +0.150 HD
ATOM    209  C   UNK A  1      -10.225  27.400  10.474  0.00  0.00    +0.231 C 
ATOM    210  O   UNK A  1       -9.519  27.627  11.459  0.00  0.00    -0.274 OA
BRANCH 209 211
ATOM    211  C   UNK A  1      -11.487  28.225  10.181  0.00  0.00    +0.200 C 
BRANCH 211 212
ATOM    212  N   UNK A  1      -11.700  29.238  11.212  0.00  0.00    -0.305 N 
ATOM    213  H   UNK A  1      -12.288  28.974  11.990  0.00  0.00    +0.149 HD
ATOM    214  C   UNK A  1      -11.151  30.463  11.206  0.00  0.00    +0.234 C 
ATOM    215  O   UNK A  1      -10.436  30.902  10.303  0.00  0.00    -0.274 OA
BRANCH 214 216
ATOM    216  C   UNK A  1      -11.481  31.349  12.416  0.00  0.00    +0.159 C 
BRANCH 216 217
ATOM    217  N   UNK A  1      -10.291  32.090  12.828  0.00  0.00    -0.302 N 
ATOM    218  H   UNK A  1       -9.608  32.246  12.101  0.00  0.00    +0.150 HD
ATOM    219  C   UNK A  0      -10.036  32.538  14.072  0.00  0.00    +0.237 C 
ATOM    220  O   UNK A  0      -10.826  32.364  15.002  0.00  0.00    -0.273 OA
BRANCH 219 221
ATOM    221  C   UNK A  0       -8.687  33.290  14.327  0.00  0.00    +0.105 C 
ATOM    222  C   UNK A  0       -7.893  33.588  13.023  0.00  0.00    +0.041 C 
ATOM    223  C   UNK A  0       -8.992  34.638  15.024  0.00  0.00    +0.041 C 
BRANCH 221 224
ATOM    224  N   UNK A  0       -7.840  32.483  15.236  0.00  0.00    -0.301 N 
ATOM    225  H   UNK A  0       -7.333  33.034  15.913  0.00  0.00    +0.150 HD
ATOM    226  C   UNK A  0       -7.434  31.199  15.118  0.00  0.00    +0.231 C 
ATOM    227  O   UNK A  0       -7.865  30.400  14.285  0.00  0.00    -0.274 OA
BRANCH 226 228
ATOM    228  C   UNK A  0       -6.305  30.764  16.079  0.00  0.00    +0.144 C 
BRANCH 228 229
ATOM    229  N   UNK A  0       -6.805  29.615  16.851  0.00  0.00    -0.320 NA
ATOM    230  H   UNK A  0       -7.078  28.855  16.244  0.00  0.00    +0.119 HD
ATOM    231  H   UNK A  0       -7.604  29.862  17.416  0.00  0.00    +0.119 HD
ENDBRANCH 228 229
BRANCH 228 232
ATOM    232  C   UNK A  0       -4.982  30.440  15.340  0.00  0.00    +0.084 C 
BRANCH 232 233
ATOM    233  C   UNK A  0       -4.441  31.538  14.451  0.00  0.00    +0.061 A 
ATOM    234  N   UNK A  0       -4.678  31.573  13.072  0.00  0.00    -0.241 NA
ATOM    235  C   UNK A  0       -4.079  32.676  12.649  0.00  0.00    +0.196 A 
ATOM    236  N   UNK A  0       -3.477  33.350  13.629  0.00  0.00    -0.351 N 
ATOM    237  H   UNK A  0       -2.964  34.215  13.535  0.00  0.00    +0.166 HD
ATOM    238  C   UNK A  0       -3.690  32.642  14.799  0.00  0.00    +0.107 A 
ENDBRANCH 232 233
ENDBRANCH 228 232
ENDBRANCH 226 228
ENDBRANCH 221 224
ENDBRANCH 219 221
ENDBRANCH 216 217
BRANCH 216 239
ATOM    239  C   UNK A  1      -12.656  32.334  12.170  0.00  0.00    +0.043 C 
BRANCH 239 240
ATOM    240  C   UNK A  1      -13.936  31.765  11.503  0.00  0.00    +0.123 C 
BRANCH 240 241
ATOM    241  C   UNK A  1      -14.699  30.670  12.274  0.00  0.00    +0.305 C 
ATOM    242  O   UNK A  1      -14.459  30.500  13.491  0.00  0.00    -0.251 OA
BRANCH 241 243
ATOM    243  O   UNK A  1      -15.537  30.013  11.618  0.00  0.00    -0.481 OA
ATOM    244  H   UNK A  1      -16.031  29.334  12.036  0.00  0.00    +0.295 HD
ENDBRANCH 241 243
ENDBRANCH 240 241
ENDBRANCH 239 240
ENDBRANCH 216 239
ENDBRANCH 214 216
ENDBRANCH 211 212
ENDBRANCH 209 211
ENDBRANCH 206 207
BRANCH 206 245
ATOM    245  C   UNK A  1       -9.065  24.210   8.884  0.00  0.00    +0.141 C 
ATOM    246  C   UNK A  1       -7.912  23.187   8.909  0.00  0.00    +0.040 C 
BRANCH 245 247
ATOM    247  O   UNK A  1      -10.212  23.568   9.408  0.00  0.00    -0.390 OA
ATOM    248  H   UNK A  1      -10.014  23.261  10.296  0.00  0.00    +0.210 HD
ENDBRANCH 245 247
ENDBRANCH 206 245
ENDBRANCH 204 206
ENDBRANCH 201 202
BRANCH 201 249
ATOM    249  C   UNK A  1       -4.572  27.508  10.505  0.00  0.00    +0.067 C 
BRANCH 249 250
ATOM    250  C   UNK A  1       -5.297  28.842  10.476  0.00  0.00    -0.045 A 
ATOM    251  C   UNK A  1       -6.481  29.025  11.221  0.00  0.00    +0.004 A 
ATOM    252  C   UNK A  1       -7.221  30.189  11.073  0.00  0.00    +0.000 A 
ATOM    253  C   UNK A  1       -6.810  31.173  10.184  0.00  0.00    +0.000 A 
ATOM    254  C   UNK A  1       -5.660  30.998   9.426  0.00  0.00    +0.000 A 
ATOM    255  C   UNK A  1       -4.910  29.836   9.552  0.00  0.00    +0.004 A 
ENDBRANCH 249 250
ENDBRANCH 201 249
ENDBRANCH 199 201
ENDBRANCH 196 197
BRANCH 196 256
ATOM    256  C   UNK A  1       -3.861  23.099   6.202  0.00  0.00    +0.141 C 
ATOM    257  C   UNK A  1       -5.371  22.858   6.056  0.00  0.00    +0.040 C 
BRANCH 256 258
ATOM    258  O   UNK A  1       -3.427  23.966   5.168  0.00  0.00    -0.390 OA
ATOM    259  H   UNK A  1       -3.896  24.799   5.248  0.00  0.00    +0.210 HD
ENDBRANCH 256 258
ENDBRANCH 196 256
ENDBRANCH 194 196
ENDBRANCH 191 192
BRANCH 191 260
ATOM    260  C   UNK A  1        0.920  22.758   9.133  0.00  0.00    +0.187 C 
BRANCH 260 261
ATOM    261  O   UNK A  1        0.877  24.098   9.578  0.00  0.00    -0.393 OA
ATOM    262  H   UNK A  1        1.244  24.137  10.464  0.00  0.00    +0.209 HD
ENDBRANCH 260 261
ENDBRANCH 191 260
ENDBRANCH 189 191
ENDBRANCH 186 187
BRANCH 186 263
ATOM    263  C   UNK A  1       -1.466  19.245   4.672  0.00  0.00    +0.152 C 
BRANCH 263 264
ATOM    264  C   UNK A  1       -2.740  19.326   5.540  0.00  0.00    +0.307 C 
ATOM    265  O   UNK A  1       -3.829  19.330   4.924  0.00  0.00    -0.251 OA
BRANCH 264 266
ATOM    266  O   UNK A  1       -2.638  19.262   6.786  0.00  0.00    -0.481 OA
ATOM    267  H   UNK A  1       -1.792  19.263   7.188  0.00  0.00    +0.295 HD
ENDBRANCH 264 266
ENDBRANCH 263 264
ENDBRANCH 186 263
ENDBRANCH 184 186
ENDBRANCH 181 182
BRANCH 181 268
ATOM    268  C   UNK A  1        3.906  17.500   3.865  0.00  0.00    +0.012 C 
ATOM    269  C   UNK A  1        4.559  18.572   4.754  0.00  0.00    +0.009 C 
ATOM    270  C   UNK A  1        3.724  16.178   4.643  0.00  0.00    +0.009 C 
ENDBRANCH 181 268
ENDBRANCH 179 181
ENDBRANCH 176 177
BRANCH 176 271
ATOM    271  C   UNK A  1        3.566  15.951  -1.088  0.00  0.00    +0.187 C 
BRANCH 271 272
ATOM    272  O   UNK A  1        3.355  15.027  -2.138  0.00  0.00    -0.393 OA
ATOM    273  H   UNK A  1        4.009  15.189  -2.822  0.00  0.00    +0.209 HD
ENDBRANCH 271 272
ENDBRANCH 176 271
ENDBRANCH 174 176
ENDBRANCH 171 172
BRANCH 171 274
ATOM    274  C   UNK A  1        0.362  11.424   0.221  0.00  0.00    +0.187 C 
BRANCH 274 275
ATOM    275  O   UNK A  1       -0.675  11.873   1.069  0.00  0.00    -0.393 OA
ATOM    276  H   UNK A  1       -1.493  11.445   0.807  0.00  0.00    +0.209 HD
ENDBRANCH 274 275
ENDBRANCH 171 274
ENDBRANCH 169 171
ENDBRANCH 166 167
BRANCH 166 277
ATOM    277  C   UNK A  1        6.191  10.627   1.581  0.00  0.00    +0.067 C 
BRANCH 277 278
ATOM    278  C   UNK A  1        6.414  12.134   1.565  0.00  0.00    -0.045 A 
ATOM    279  C   UNK A  1        6.335  12.875   2.764  0.00  0.00    +0.007 A 
ATOM    280  C   UNK A  1        6.506  14.273   2.748  0.00  0.00    +0.045 A 
ATOM    281  C   UNK A  1        6.753  14.939   1.532  0.00  0.00    +0.117 A 
ATOM    282  C   UNK A  1        6.847  14.203   0.335  0.00  0.00    +0.045 A 
ATOM    283  C   UNK A  1        6.681  12.804   0.352  0.00  0.00    +0.007 A 
BRANCH 281 284
ATOM    284  O   UNK A  1        6.894  16.296   1.513  0.00  0.00    -0.507 OA
ATOM    285  H   UNK A  1        6.809  16.693   2.383  0.00  0.00    +0.292 HD
ENDBRANCH 281 284
ENDBRANCH 277 278
ENDBRANCH 166 277
ENDBRANCH 164 166
ENDBRANCH 161 162
BRANCH 161 286
ATOM    286  C   UNK A  1        2.276   6.652  -1.125  0.00  0.00    +0.034 C 
BRANCH 286 287
ATOM    287  C   UNK A  1        1.143   7.639  -0.759  0.00  0.00    -0.015 C 
ATOM    288  C   UNK A  1        0.000   7.607  -1.795  0.00  0.00    +0.007 C 
ATOM    289  C   UNK A  1        0.633   7.438   0.681  0.00  0.00    +0.007 C 
ENDBRANCH 286 287
ENDBRANCH 161 286
ENDBRANCH 159 161
ENDBRANCH 156 157
BRANCH 156 290
ATOM    290  C   UNK A  1        6.547   3.351   0.525  0.00  0.00    +0.043 C 
BRANCH 290 291
ATOM    291  C   UNK A  1        7.515   2.162   0.344  0.00  0.00    +0.123 C 
BRANCH 291 292
ATOM    292  C   UNK A  1        8.145   2.120  -1.049  0.00  0.00    +0.305 C 
ATOM    293  O   UNK A  1        9.096   2.820  -1.389  0.00  0.00    -0.251 OA
BRANCH 292 294
ATOM    294  O   UNK A  1        7.530   1.223  -1.873  0.00  0.00    -0.481 OA
ATOM    295  H   UNK A  1        7.926   1.196  -2.746  0.00  0.00    +0.295 HD
ENDBRANCH 292 294
ENDBRANCH 291 292
ENDBRANCH 290 291
ENDBRANCH 156 290
ENDBRANCH 154 156
ENDBRANCH 151 152
ENDBRANCH   3 151
TORSDOF 124
