REMARK  Name = DB14600
REMARK                            x       y       z     vdW  Elec       q    Type
REMARK                         _______ _______ _______ _____ _____    ______ ____
ROOT
ATOM      1  C   LIG    1       -0.247   0.130   0.574  0.00  0.00    +0.101 C 
ENDROOT
BRANCH   1   2
ATOM      2  N   LIG    1       -0.507   1.503   0.100  0.00  0.00    -0.281 NA
BRANCH   2   3
ATOM      3  C   LIG    1       -0.540   2.380   1.295  0.00  0.00    +0.206 C 
BRANCH   3   4
ATOM      4  C   LIG    1       -0.455   3.905   1.008  0.00  0.00    +0.319 C 
ATOM      5  O   LIG    1       -0.736   4.652   1.973  0.00  0.00    -0.250 OA
BRANCH   4   6
ATOM      6  O   LIG    1       -0.094   4.327  -0.116  0.00  0.00    -0.480 OA
ATOM      7  H   LIG    1        0.104   3.721  -0.803  0.00  0.00    +0.295 HD
ENDBRANCH   4   6
ENDBRANCH   3   4
ENDBRANCH   2   3
BRANCH   2   8
ATOM      8  C   LIG    1       -1.819   1.552  -0.579  0.00  0.00    +0.206 C 
BRANCH   8   9
ATOM      9  C   LIG    1       -1.766   0.980  -2.010  0.00  0.00    +0.319 C 
ATOM     10  O   LIG    1       -0.734   0.709  -2.624  0.00  0.00    -0.250 OA
BRANCH   9  11
ATOM     11  O   LIG    1       -3.024   0.842  -2.519  0.00  0.00    -0.480 OA
ATOM     12  H   LIG    1       -3.014   0.497  -3.414  0.00  0.00    +0.295 HD
ENDBRANCH   9  11
ENDBRANCH   8   9
ENDBRANCH   2   8
ENDBRANCH   1   2
BRANCH   1  13
ATOM     13  C   LIG    1        1.217  -0.072   1.053  0.00  0.00    +0.101 C 
BRANCH  13  14
ATOM     14  N   LIG    1        1.831  -1.292   0.494  0.00  0.00    -0.281 NA
BRANCH  14  15
ATOM     15  C   LIG    1        2.190  -0.984  -0.912  0.00  0.00    +0.206 C 
BRANCH  15  16
ATOM     16  C   LIG    1        2.501  -2.218  -1.804  0.00  0.00    +0.319 C 
ATOM     17  O   LIG    1        3.066  -1.972  -2.893  0.00  0.00    -0.250 OA
BRANCH  16  18
ATOM     18  O   LIG    1        2.166  -3.370  -1.438  0.00  0.00    -0.480 OA
ATOM     19  H   LIG    1        1.745  -3.495  -0.611  0.00  0.00    +0.295 HD
ENDBRANCH  16  18
ENDBRANCH  15  16
ENDBRANCH  14  15
BRANCH  14  20
ATOM     20  C   LIG    1        3.059  -1.627   1.244  0.00  0.00    +0.206 C 
BRANCH  20  21
ATOM     21  C   LIG    1        2.762  -2.310   2.594  0.00  0.00    +0.319 C 
ATOM     22  O   LIG    1        1.645  -2.662   2.977  0.00  0.00    -0.250 OA
BRANCH  21  23
ATOM     23  O   LIG    1        3.913  -2.495   3.301  0.00  0.00    -0.480 OA
ATOM     24  H   LIG    1        3.756  -2.935   4.140  0.00  0.00    +0.295 HD
ENDBRANCH  21  23
ENDBRANCH  20  21
ENDBRANCH  14  20
ENDBRANCH  13  14
ENDBRANCH   1  13
TORSDOF 15
