REMARK  Name = DB14568
REMARK                            x       y       z     vdW  Elec       q    Type
REMARK                         _______ _______ _______ _____ _____    ______ ____
ROOT
ATOM      1  N   LIG    1        1.680  -0.212  -0.068  0.00  0.00    -0.252 N 
ATOM      2  C   LIG    1        2.480   0.803   0.389  0.00  0.00    +0.242 C 
ATOM      3  O   LIG    1        2.008   1.850   0.842  0.00  0.00    -0.273 OA
ENDROOT
BRANCH   1   4
ATOM      4  C   LIG    1        2.262  -1.370  -0.628  0.00  0.00    +0.058 A 
ATOM      5  C   LIG    1        2.646  -1.410  -1.976  0.00  0.00    +0.134 A 
ATOM      6  N   LIG    1        3.180  -2.514  -2.558  0.00  0.00    -0.259 NA
ATOM      7  C   LIG    1        3.334  -3.623  -1.789  0.00  0.00    +0.149 A 
ATOM      8  C   LIG    1        2.969  -3.669  -0.442  0.00  0.00    +0.143 A 
ATOM      9  F   LIG    1        3.138  -4.800   0.279  0.00  0.00    -0.204 F 
ATOM     10  C   LIG    1        2.422  -2.527   0.144  0.00  0.00    +0.065 A 
ENDBRANCH   1   4
BRANCH   2  11
ATOM     11  C   LIG    1        4.035   0.654   0.343  0.00  0.00    +0.169 C 
ATOM     12  C   LIG    1        4.542  -0.040   1.599  0.00  0.00    +0.041 C 
ATOM     13  C   LIG    1        5.053   1.079   2.465  0.00  0.00    +0.099 C 
ATOM     14  C   LIG    1        5.322   2.250   1.523  0.00  0.00    +0.222 C 
ATOM     15  O   LIG    1        5.963   3.246   1.857  0.00  0.00    -0.275 OA
ATOM     16  N   LIG    1        4.745   1.962   0.311  0.00  0.00    -0.244 N 
BRANCH  16  17
ATOM     17  C   LIG    1        4.727   2.836  -0.824  0.00  0.00    +0.129 A 
ATOM     18  C   LIG    1        4.130   2.402  -2.024  0.00  0.00    +0.063 A 
ATOM     19  C   LIG    1        4.096   3.253  -3.133  0.00  0.00    +0.056 A 
ATOM     20  C   LIG    1        4.664   4.524  -3.038  0.00  0.00    +0.038 A 
ATOM     21  C   LIG    1        5.247   4.900  -1.830  0.00  0.00    +0.114 A 
ATOM     22  N   LIG    1        5.281   4.084  -0.747  0.00  0.00    -0.240 NA
BRANCH  19  23
ATOM     23  C   LIG    1        3.472   2.815  -4.373  0.00  0.00    +0.099 C 
ATOM     24  N   LIG    1        2.975   2.465  -5.357  0.00  0.00    -0.191 NA
ENDBRANCH  19  23
ENDBRANCH  16  17
ENDBRANCH   2  11
BRANCH   1  25
ATOM     25  C   LIG    1        0.190  -0.059  -0.023  0.00  0.00    +0.199 C 
BRANCH  25  32
ATOM     26 CL   LIG    1        0.259   1.432  -2.720  0.00  0.00    -0.083 Cl
ATOM     27  C   LIG    1       -0.489  -0.111  -2.476  0.00  0.00    +0.046 A 
ATOM     28  C   LIG    1       -1.098  -0.723  -3.573  0.00  0.00    +0.020 A 
ATOM     29  C   LIG    1       -1.709  -1.967  -3.438  0.00  0.00    +0.001 A 
ATOM     30  C   LIG    1       -1.714  -2.606  -2.201  0.00  0.00    +0.000 A 
ATOM     31  C   LIG    1       -1.109  -2.000  -1.102  0.00  0.00    +0.007 A 
ATOM     32  C   LIG    1       -0.484  -0.745  -1.217  0.00  0.00    +0.000 A 
ENDBRANCH  25  32
BRANCH  25  33
ATOM     33  C   LIG    1       -0.409  -0.420   1.369  0.00  0.00    +0.239 C 
ATOM     34  O   LIG    1        0.315  -0.818   2.285  0.00  0.00    -0.273 OA
ATOM     35  N   LIG    1       -1.736  -0.244   1.500  0.00  0.00    -0.310 N 
ATOM     36  H   LIG    1       -2.257  -0.078   0.651  0.00  0.00    +0.149 HD
BRANCH  35  37
ATOM     37  C   LIG    1       -2.513  -0.689   2.660  0.00  0.00    +0.084 C 
ATOM     38  C   LIG    1       -2.392   0.201   3.905  0.00  0.00    +0.098 C 
ATOM     39  C   LIG    1       -3.701   0.899   3.492  0.00  0.00    +0.252 C 
ATOM     40  F   LIG    1       -4.572   1.081   4.484  0.00  0.00    -0.206 F 
ATOM     41  F   LIG    1       -3.544   2.057   2.849  0.00  0.00    -0.206 F 
ATOM     42  C   LIG    1       -3.997  -0.313   2.589  0.00  0.00    +0.098 C 
ENDBRANCH  35  37
ENDBRANCH  25  33
ENDBRANCH   1  25
TORSDOF 8
