REMARK  Name = DB14197
REMARK                            x       y       z     vdW  Elec       q    Type
REMARK                         _______ _______ _______ _____ _____    ______ ____
ROOT
ATOM      1  C   LIG    1       -0.010   0.000   0.000  0.00  0.00    +0.161 C 
ATOM      2  N   LIG    1        1.453   0.005   0.000  0.00  0.00    -0.281 N 
ATOM      3  C   LIG    1        2.190   1.135   0.000  0.00  0.00    +0.259 A 
ATOM      4  O   LIG    1        1.744   2.283   0.000  0.00  0.00    -0.267 OA
ATOM      5  C   LIG    1        3.591   0.797   0.000  0.00  0.00    +0.099 A 
ATOM      6  C   LIG    1        3.827  -0.523   0.000  0.00  0.00    +0.100 A 
ATOM      7 CL   LIG    1        5.426  -1.271   0.000  0.00  0.00    -0.074 Cl
ATOM      8  S   LIG    1        2.346  -1.468   0.000  0.00  0.00    +0.003 S 
ENDROOT
TORSDOF 0
