REMARK  Name = DB14583
REMARK                            x       y       z     vdW  Elec       q    Type
REMARK                         _______ _______ _______ _____ _____    ______ ____
ROOT
ATOM      1  C   LIG    1        1.562   0.142   0.038  0.00  0.00    +0.197 C 
ATOM      2  C   LIG    1        2.176   0.715  -1.275  0.00  0.00    -0.026 C 
ATOM      3  C   LIG    1        2.394  -0.489  -2.199  0.00  0.00    +0.039 C 
ATOM      4  C   LIG    1        2.081  -1.713  -1.332  0.00  0.00    +0.007 C 
ATOM      5  C   LIG    1        2.722  -3.091  -1.652  0.00  0.00    -0.003 C 
ATOM      6  C   LIG    1        2.581  -3.475  -3.142  0.00  0.00    +0.008 C 
ATOM      7  C   LIG    1        3.213  -4.847  -3.436  0.00  0.00    +0.031 C 
ATOM      8  C   LIG    1        2.529  -5.876  -2.545  0.00  0.00    -0.063 C 
ATOM      9  C   LIG    1        1.793  -6.895  -3.043  0.00  0.00    +0.045 C 
ATOM     10  C   LIG    1        1.044  -7.839  -2.227  0.00  0.00    +0.156 C 
ATOM     11  O   LIG    1        0.497  -8.826  -2.715  0.00  0.00    -0.293 OA
ATOM     12  C   LIG    1        0.862  -7.446  -0.757  0.00  0.00    +0.079 C 
ATOM     13  C   LIG    1        2.134  -6.782  -0.195  0.00  0.00    +0.016 C 
ATOM     14  C   LIG    1        2.681  -5.587  -1.034  0.00  0.00    +0.019 C 
ATOM     15  C   LIG    1        2.067  -4.180  -0.733  0.00  0.00    -0.000 C 
ATOM     16  C   LIG    1        2.182  -3.756   0.764  0.00  0.00    +0.005 C 
ATOM     17  C   LIG    1        1.613  -2.337   1.031  0.00  0.00    +0.012 C 
ATOM     18  C   LIG    1        2.499   1.985  -1.583  0.00  0.00    +0.012 C 
ATOM     19  C   LIG    1        2.281  -1.257   0.126  0.00  0.00    +0.022 C 
ATOM     20  C   LIG    1        3.797  -1.118   0.517  0.00  0.00    +0.016 C 
ENDROOT
BRANCH   1  21
ATOM     21  C   LIG    1        1.780   0.996   1.338  0.00  0.00    +0.178 C 
ATOM     22  O   LIG    1        2.743   1.754   1.457  0.00  0.00    -0.293 OA
ATOM     23  C   LIG    1        0.814   0.835   2.515  0.00  0.00    +0.091 C 
ENDBRANCH   1  21
BRANCH   1  24
ATOM     24  O   LIG    1        0.125  -0.063  -0.072  0.00  0.00    -0.445 OA
BRANCH  24  25
ATOM     25  C   LIG    1       -0.792   0.876  -0.456  0.00  0.00    +0.305 C 
ATOM     26  O   LIG    1       -0.566   2.054  -0.732  0.00  0.00    -0.251 OA
ATOM     27  C   LIG    1       -2.206   0.312  -0.493  0.00  0.00    +0.136 C 
ENDBRANCH  24  25
ENDBRANCH   1  24
TORSDOF 3
