REMARK  Name = DB14116
REMARK                            x       y       z     vdW  Elec       q    Type
REMARK                         _______ _______ _______ _____ _____    ______ ____
ROOT
ATOM      1 SI   LIG    1       -0.027  -0.022  -0.002  0.00  0.00    +0.000 Si
ATOM      2  O   LIG    1       -1.212  -0.997  -0.065  0.00  0.00    +0.000 OA
ENDROOT
BRANCH   1   3
ATOM      3  O   LIG    1        0.173   1.133  -1.200  0.00  0.00    +0.000 OA
ATOM      4  H   LIG    1       -0.539   1.049  -1.853  0.00  0.00    +0.000 HD
ENDBRANCH   1   3
BRANCH   1   5
ATOM      5  O   LIG    1        1.066  -0.113   1.267  0.00  0.00    +0.000 OA
ATOM      6  H   LIG    1        1.747   0.568   1.156  0.00  0.00    +0.000 HD
ENDBRANCH   1   5
TORSDOF 2
