REMARK  Name = DB14795
REMARK                            x       y       z     vdW  Elec       q    Type
REMARK                         _______ _______ _______ _____ _____    ______ ____
ROOT
ATOM      1  C   LIG    1       -0.933   1.204  -0.484  0.00  0.00    +0.164 A 
ATOM      2  C   LIG    1       -2.329   1.176  -0.344  0.00  0.00    +0.078 A 
ATOM      3  C   LIG    1       -3.041  -0.044  -0.414  0.00  0.00    +0.080 A 
ATOM      4  N   LIG    1       -4.396  -0.021  -0.273  0.00  0.00    -0.235 NA
ATOM      5  C   LIG    1       -5.036  -1.213  -0.343  0.00  0.00    +0.223 A 
ATOM      6  N   LIG    1       -4.469  -2.426  -0.537  0.00  0.00    -0.220 NA
ATOM      7  C   LIG    1       -3.119  -2.452  -0.684  0.00  0.00    +0.134 A 
ATOM      8  C   LIG    1       -2.328  -1.263  -0.626  0.00  0.00    +0.044 A 
ATOM      9  C   LIG    1       -0.917  -1.213  -0.764  0.00  0.00    +0.063 A 
ATOM     10  C   LIG    1       -0.241   0.006  -0.703  0.00  0.00    +0.175 A 
ENDROOT
BRANCH   1  12
ATOM     11  C   LIG    1       -0.831   3.615  -0.228  0.00  0.00    +0.277 C 
ATOM     12  O   LIG    1       -0.178   2.364  -0.418  0.00  0.00    -0.491 OA
ENDBRANCH   1  12
BRANCH   7  13
ATOM     13  N   LIG    1       -2.508  -3.704  -0.882  0.00  0.00    -0.297 N 
ATOM     14  H   LIG    1       -1.500  -3.698  -0.829  0.00  0.00    +0.154 HD
BRANCH  13  15
ATOM     15  C   LIG    1       -3.090  -4.976  -1.004  0.00  0.00    +0.070 A 
ATOM     16  C   LIG    1       -2.620  -6.004  -0.182  0.00  0.00    +0.026 A 
ATOM     17  C   LIG    1       -3.136  -7.294  -0.299  0.00  0.00    +0.003 A 
ATOM     18  C   LIG    1       -4.112  -7.570  -1.256  0.00  0.00    +0.023 A 
ATOM     19  C   LIG    1       -4.566  -6.559  -2.103  0.00  0.00    +0.078 A 
ATOM     20 CL   LIG    1       -5.758  -6.924  -3.300  0.00  0.00    -0.081 Cl
ATOM     21  C   LIG    1       -4.050  -5.264  -1.988  0.00  0.00    +0.163 A 
ATOM     22  F   LIG    1       -4.473  -4.299  -2.841  0.00  0.00    -0.202 F 
ENDBRANCH  13  15
ENDBRANCH   7  13
BRANCH  10  23
ATOM     23  O   LIG    1        1.132   0.013  -0.825  0.00  0.00    -0.408 OA
BRANCH  23  24
ATOM     24  C   LIG    1        1.707   0.195  -2.056  0.00  0.00    +0.408 C 
ATOM     25  N   LIG    1        3.097   0.413  -1.954  0.00  0.00    -0.268 N 
ATOM     26  C   LIG    1        3.845   0.749  -3.191  0.00  0.00    +0.060 C 
ATOM     27  C   LIG    1        5.161  -0.038  -3.350  0.00  0.00    +0.026 C 
ATOM     28  C   LIG    1        4.069   2.291  -3.191  0.00  0.00    -0.057 C 
ATOM     29  N   LIG    1        4.689   2.779  -1.859  0.00  0.00    +0.380 N 
ATOM     30  H   LIG    1        5.600   2.351  -1.763  0.00  0.00    -0.082 HD
ATOM     31  C   LIG    1        4.850   4.311  -1.868  0.00  0.00    -0.096 C 
ATOM     32  C   LIG    1        3.829   2.333  -0.657  0.00  0.00    -0.060 C 
ATOM     33  C   LIG    1        3.717   0.794  -0.666  0.00  0.00    +0.093 C 
ATOM     34  O   LIG    1        1.069   0.172  -3.114  0.00  0.00    -0.226 OA
ENDBRANCH  23  24
ENDBRANCH  10  23
TORSDOF 5
