REMARK  Name = DB14801
REMARK                            x       y       z     vdW  Elec       q    Type
REMARK                         _______ _______ _______ _____ _____    ______ ____
ROOT
ATOM      1  C   LIG    1        2.221  -1.491  -0.149  0.00  0.00    +0.044 A 
ATOM      2  N   LIG    1        3.603  -1.621  -0.283  0.00  0.00    -0.215 N 
ATOM      3  C   LIG    1        3.928  -2.976  -0.391  0.00  0.00    +0.073 A 
ATOM      4  C   LIG    1        5.156  -3.644  -0.543  0.00  0.00    +0.029 A 
ATOM      5  C   LIG    1        5.135  -5.037  -0.618  0.00  0.00    +0.022 A 
ATOM      6  C   LIG    1        3.949  -5.759  -0.550  0.00  0.00    +0.042 A 
ATOM      7  C   LIG    1        2.728  -5.109  -0.404  0.00  0.00    +0.030 A 
ATOM      8 CL   LIG    1        3.992  -7.482  -0.649  0.00  0.00    -0.084 Cl
ATOM      9  C   LIG    1        2.706  -3.709  -0.323  0.00  0.00    +0.003 A 
ATOM     10  C   LIG    1        1.664  -2.755  -0.176  0.00  0.00    +0.033 A 
ENDROOT
BRANCH   2  11
ATOM     11  S   LIG    1        4.724  -0.319   0.025  0.00  0.00    +0.084 S 
ATOM     12  O   LIG    1        4.177   0.882  -0.617  0.00  0.00    -0.148 OA
ATOM     13  O   LIG    1        6.066  -0.795  -0.323  0.00  0.00    -0.148 OA
BRANCH  11  14
ATOM     14  C   LIG    1        4.678  -0.099   1.801  0.00  0.00    +0.112 A 
ATOM     15  C   LIG    1        5.131  -1.138   2.618  0.00  0.00    +0.031 A 
ATOM     16  C   LIG    1        5.103  -1.035   4.009  0.00  0.00    +0.031 A 
ATOM     17  C   LIG    1        4.605   0.145   4.580  0.00  0.00    +0.078 A 
ATOM     18  N   LIG    1        4.513   0.385   5.916  0.00  0.00    -0.247 NA
ATOM     19  C   LIG    1        4.012   1.566   6.144  0.00  0.00    +0.157 A 
ATOM     20  S   LIG    1        3.590   2.531   4.752  0.00  0.00    -0.075 S 
ATOM     21  C   LIG    1        4.150   1.202   3.745  0.00  0.00    +0.041 A 
ATOM     22  C   LIG    1        4.186   1.089   2.349  0.00  0.00    +0.046 A 
ENDBRANCH  11  14
ENDBRANCH   2  11
BRANCH   1  23
ATOM     23  C   LIG    1        1.523  -0.143  -0.002  0.00  0.00    +0.056 C 
BRANCH  23  24
ATOM     24  C   LIG    1        0.015  -0.244   0.301  0.00  0.00    +0.017 C 
BRANCH  24  25
ATOM     25  C   LIG    1       -0.644   1.146   0.498  0.00  0.00    +0.121 C 
BRANCH  25  26
ATOM     26  C   LIG    1       -2.148   1.116   0.866  0.00  0.00    +0.305 C 
ATOM     27  O   LIG    1       -2.675   2.226   1.106  0.00  0.00    -0.251 OA
BRANCH  26  28
ATOM     28  O   LIG    1       -2.767   0.026   0.903  0.00  0.00    -0.481 OA
ATOM     29  H   LIG    1       -3.188  -0.299   0.132  0.00  0.00    +0.295 HD
ENDBRANCH  26  28
ENDBRANCH  25  26
ENDBRANCH  24  25
ENDBRANCH  23  24
ENDBRANCH   1  23
TORSDOF 7
