REMARK  Name = DB14540
REMARK                            x       y       z     vdW  Elec       q    Type
REMARK                         _______ _______ _______ _____ _____    ______ ____
ROOT
ATOM      1  C   LIG    1       -1.248  -4.522  -1.232  0.00  0.00    +0.008 C 
ATOM      2  C   LIG    1       -1.692  -5.572  -2.268  0.00  0.00    +0.032 C 
ATOM      3  C   LIG    1       -0.881  -5.341  -3.541  0.00  0.00    -0.060 C 
ATOM      4  C   LIG    1       -1.112  -3.952  -4.200  0.00  0.00    -0.005 C 
ATOM      5  C   LIG    1       -2.620  -3.818  -4.574  0.00  0.00    +0.016 C 
ATOM      6  C   LIG    1       -0.619  -2.895  -3.127  0.00  0.00    +0.031 C 
ATOM      7  C   LIG    1       -0.569  -1.396  -3.603  0.00  0.00    +0.119 C 
ATOM      8  C   LIG    1       -0.099  -0.440  -2.470  0.00  0.00    +0.043 C 
ATOM      9  C   LIG    1       -0.911  -0.574  -1.139  0.00  0.00    +0.020 C 
ATOM     10  C   LIG    1       -2.404  -0.136  -1.343  0.00  0.00    +0.016 C 
ATOM     11  C   LIG    1       -0.297   0.118   0.144  0.00  0.00    +0.179 C 
ATOM     12  C   LIG    1       -0.927  -0.716   1.315  0.00  0.00    +0.057 C 
ATOM     13  C   LIG    1       -1.243  -2.113   0.748  0.00  0.00    +0.009 C 
ATOM     14  C   LIG    1       -0.772  -2.059  -0.712  0.00  0.00    +0.003 C 
ATOM     15  C   LIG    1       -0.309  -3.881  -5.545  0.00  0.00    +0.019 C 
ATOM     16  C   LIG    1        1.080  -4.544  -5.525  0.00  0.00    +0.080 C 
ATOM     17  C   LIG    1        0.972  -5.999  -5.059  0.00  0.00    +0.156 C 
ATOM     18  O   LIG    1        1.701  -6.886  -5.497  0.00  0.00    -0.293 OA
ATOM     19  C   LIG    1        0.050  -6.230  -3.958  0.00  0.00    +0.046 C 
ATOM     20  C   LIG    1       -1.357  -3.063  -1.746  0.00  0.00    -0.001 C 
ENDROOT
BRANCH   7  21
ATOM     21  O   LIG    1       -1.764  -0.930  -4.195  0.00  0.00    -0.391 OA
ATOM     22  H   LIG    1       -1.971  -1.493  -4.944  0.00  0.00    +0.210 HD
ENDBRANCH   7  21
BRANCH  11  23
ATOM     23  C   LIG    1       -0.581   1.659   0.241  0.00  0.00    +0.202 C 
ATOM     24  O   LIG    1       -1.288   2.119   1.142  0.00  0.00    -0.291 OA
BRANCH  23  25
ATOM     25  C   LIG    1        0.053   2.576  -0.824  0.00  0.00    +0.234 C 
BRANCH  25  26
ATOM     26  O   LIG    1       -0.128   3.939  -0.485  0.00  0.00    -0.387 OA
ATOM     27  H   LIG    1       -1.070   4.121  -0.440  0.00  0.00    +0.210 HD
ENDBRANCH  25  26
ENDBRANCH  23  25
ENDBRANCH  11  23
BRANCH  11  28
ATOM     28  O   LIG    1        1.149  -0.034   0.111  0.00  0.00    -0.450 OA
BRANCH  28  29
ATOM     29  C   LIG    1        2.031   0.309   1.104  0.00  0.00    +0.308 C 
ATOM     30  O   LIG    1        1.750   0.800   2.197  0.00  0.00    -0.251 OA
BRANCH  29  31
ATOM     31  C   LIG    1        3.481   0.031   0.709  0.00  0.00    +0.120 C 
BRANCH  31  32
ATOM     32  C   LIG    1        4.051   1.110  -0.232  0.00  0.00    +0.008 C 
ATOM     33  C   LIG    1        5.508   0.835  -0.620  0.00  0.00    +0.004 C 
ENDBRANCH  31  32
ENDBRANCH  29  31
ENDBRANCH  28  29
ENDBRANCH  11  28
TORSDOF 8
