REMARK  Name = DB14505
REMARK                            x       y       z     vdW  Elec       q    Type
REMARK                         _______ _______ _______ _____ _____    ______ ____
ROOT
ATOM      1  B   LIG    1       -1.194   0.653   1.167  0.00  0.00    +0.000 B 
ATOM      2  O   LIG    1       -0.268   1.551   0.593  0.00  0.00    +0.000 OA
ATOM      3  B   LIG    1        0.293   1.189  -0.643  0.00  0.00    +0.000 B 
ATOM      4  O   LIG    1       -0.593   0.431  -1.410  0.00  0.00    +0.000 OA
ATOM      5  B   LIG    1       -0.877  -0.765  -0.748  0.00  0.00    +0.000 B 
ATOM      6  O   LIG    1        0.273  -1.555  -0.583  0.00  0.00    +0.000 OA
ATOM      7  B   LIG    1        1.503  -0.877  -0.436  0.00  0.00    +0.000 B 
ATOM      8  O   LIG    1        1.524   0.535  -0.471  0.00  0.00    +0.000 OA
ATOM      9  O   LIG    1       -1.520  -0.538   0.481  0.00  0.00    +0.000 OA
ENDROOT
BRANCH   7  10
ATOM     10  O   LIG    1        2.673  -1.584  -0.307  0.00  0.00    +0.000 OA
ATOM     11  H   LIG    1        2.477  -2.534  -0.300  0.00  0.00    +0.000 HD
ENDBRANCH   7  10
BRANCH   1  12
ATOM     12  O   LIG    1       -1.813   0.959   2.354  0.00  0.00    +0.000 OA
ATOM     13  H   LIG    1       -2.413   0.238   2.602  0.00  0.00    +0.000 HD
ENDBRANCH   1  12
TORSDOF 2
