REMARK  Name = DB14491
REMARK                            x       y       z     vdW  Elec       q    Type
REMARK                         _______ _______ _______ _____ _____    ______ ____
ROOT
ATOM      1  C   LIG    1        0.047   0.021   0.000  0.00  0.00    +0.098 C 
ATOM      2  C   LIG    1       -0.739   1.127   0.000  0.00  0.00    +0.098 C 
ENDROOT
BRANCH   1   3
ATOM      3  C   LIG    1        1.600   0.016   0.000  0.00  0.00    +0.330 C 
ATOM      4  O   LIG    1        2.099  -1.132   0.000  0.00  0.00    -0.246 OA
BRANCH   3   5
ATOM      5  O   LIG    1        2.176   1.130   0.000  0.00  0.00    -0.478 OA
ATOM      6  H   LIG    1        1.670   1.918   0.000  0.00  0.00    +0.295 HD
ENDBRANCH   3   5
ENDBRANCH   1   3
BRANCH   2   7
ATOM      7  C   LIG    1       -2.292   1.132   0.000  0.00  0.00    +0.330 C 
ATOM      8  O   LIG    1       -2.791   2.280   0.000  0.00  0.00    -0.246 OA
BRANCH   7   9
ATOM      9  O   LIG    1       -2.868   0.018   0.000  0.00  0.00    -0.478 OA
ATOM     10  H   LIG    1       -2.362  -0.770   0.000  0.00  0.00    +0.295 HD
ENDBRANCH   7   9
ENDBRANCH   2   7
TORSDOF 4
