REMARK  Name = DB14007
REMARK                            x       y       z     vdW  Elec       q    Type
REMARK                         _______ _______ _______ _____ _____    ______ ____
ROOT
ATOM      1  N   LIG    1        1.065   0.147  -0.036  0.00  0.00    -0.290 NA
ENDROOT
BRANCH   1   2
ATOM      2  C   LIG    1        0.393  -0.392   1.167  0.00  0.00    +0.100 C 
BRANCH   2   3
ATOM      3  C   LIG    1       -1.159  -0.490   1.134  0.00  0.00    +0.101 C 
BRANCH   3   4
ATOM      4  N   LIG    1       -1.947   0.730   0.907  0.00  0.00    -0.281 NA
BRANCH   4   5
ATOM      5  C   LIG    1       -1.394   2.088   0.978  0.00  0.00    +0.206 C 
BRANCH   5   6
ATOM      6  C   LIG    1       -1.043   2.647  -0.411  0.00  0.00    +0.319 C 
ATOM      7  O   LIG    1       -1.345   2.117  -1.480  0.00  0.00    -0.250 OA
BRANCH   6   8
ATOM      8  O   LIG    1       -0.374   3.830  -0.298  0.00  0.00    -0.480 OA
ATOM      9  H   LIG    1       -0.145   4.203  -1.152  0.00  0.00    +0.295 HD
ENDBRANCH   6   8
ENDBRANCH   5   6
ENDBRANCH   4   5
BRANCH   4  10
ATOM     10  C   LIG    1       -3.396   0.579   0.735  0.00  0.00    +0.206 C 
BRANCH  10  11
ATOM     11  C   LIG    1       -4.149   0.588   2.077  0.00  0.00    +0.319 C 
ATOM     12  O   LIG    1       -3.622   0.722   3.182  0.00  0.00    -0.250 OA
BRANCH  11  13
ATOM     13  O   LIG    1       -5.488   0.429   1.874  0.00  0.00    -0.480 OA
ATOM     14  H   LIG    1       -5.982   0.430   2.696  0.00  0.00    +0.295 HD
ENDBRANCH  11  13
ENDBRANCH  10  11
ENDBRANCH   4  10
ENDBRANCH   3   4
ENDBRANCH   2   3
ENDBRANCH   1   2
BRANCH   1  15
ATOM     15  C   LIG    1        2.508   0.284   0.266  0.00  0.00    +0.205 C 
BRANCH  15  16
ATOM     16  C   LIG    1        2.830   1.543   1.095  0.00  0.00    +0.319 C 
ATOM     17  O   LIG    1        2.046   2.468   1.306  0.00  0.00    -0.250 OA
BRANCH  16  18
ATOM     18  O   LIG    1        4.121   1.513   1.532  0.00  0.00    -0.480 OA
ATOM     19  H   LIG    1        4.351   2.294   2.038  0.00  0.00    +0.295 HD
ENDBRANCH  16  18
ENDBRANCH  15  16
ENDBRANCH   1  15
BRANCH   1  20
ATOM     20  C   LIG    1        0.902  -0.823  -1.137  0.00  0.00    +0.100 C 
BRANCH  20  21
ATOM     21  C   LIG    1        0.998  -0.277  -2.593  0.00  0.00    +0.101 C 
BRANCH  21  22
ATOM     22  N   LIG    1        2.204   0.506  -2.951  0.00  0.00    -0.281 NA
BRANCH  22  23
ATOM     23  C   LIG    1        2.401   0.377  -4.414  0.00  0.00    +0.206 C 
BRANCH  23  24
ATOM     24  C   LIG    1        3.063  -0.961  -4.791  0.00  0.00    +0.319 C 
ATOM     25  O   LIG    1        2.635  -1.682  -5.689  0.00  0.00    -0.250 OA
BRANCH  24  26
ATOM     26  O   LIG    1        4.183  -1.222  -4.053  0.00  0.00    -0.480 OA
ATOM     27  H   LIG    1        4.598  -2.051  -4.302  0.00  0.00    +0.295 HD
ENDBRANCH  24  26
ENDBRANCH  23  24
ENDBRANCH  22  23
BRANCH  22  28
ATOM     28  C   LIG    1        1.887   1.921  -2.652  0.00  0.00    +0.206 C 
BRANCH  28  29
ATOM     29  C   LIG    1        3.130   2.833  -2.677  0.00  0.00    +0.319 C 
ATOM     30  O   LIG    1        3.097   3.972  -3.134  0.00  0.00    -0.250 OA
BRANCH  29  31
ATOM     31  O   LIG    1        4.229   2.265  -2.098  0.00  0.00    -0.480 OA
ATOM     32  H   LIG    1        4.988   2.853  -2.104  0.00  0.00    +0.295 HD
ENDBRANCH  29  31
ENDBRANCH  28  29
ENDBRANCH  22  28
ENDBRANCH  21  22
ENDBRANCH  20  21
ENDBRANCH   1  20
TORSDOF 21
