REMARK  Name = DB14899
REMARK                            x       y       z     vdW  Elec       q    Type
REMARK                         _______ _______ _______ _____ _____    ______ ____
ROOT
ATOM      1  C   LIG    1        1.271  -0.019  -0.220  0.00  0.00    +0.002 A 
ATOM      2  C   LIG    1        1.728  -0.083  -1.542  0.00  0.00    +0.014 A 
ATOM      3  C   LIG    1        3.091  -0.035  -1.827  0.00  0.00    +0.047 A 
ATOM      4  C   LIG    1        4.017   0.064  -0.789  0.00  0.00    +0.131 A 
ATOM      5  C   LIG    1        3.574   0.132   0.532  0.00  0.00    +0.050 A 
ATOM      6  C   LIG    1        2.207   0.087   0.827  0.00  0.00    -0.038 A 
ATOM      7  C   LIG    1        1.760   0.149   2.281  0.00  0.00    +0.044 C 
ENDROOT
BRANCH   1  10
ATOM      8  C   LIG    1        0.044  -2.604  -0.021  0.00  0.00    +0.154 C 
ATOM      9  N   LIG    1       -0.741  -1.363   0.122  0.00  0.00    -0.296 N 
ATOM     10  C   LIG    1       -0.189  -0.088   0.038  0.00  0.00    +0.061 A 
ATOM     11  C   LIG    1       -0.926   1.047   0.193  0.00  0.00    +0.038 A 
ATOM     12  C   LIG    1       -0.380   2.473   0.115  0.00  0.00    +0.051 C 
ATOM     13  C   LIG    1       -2.358   0.926   0.449  0.00  0.00    +0.257 A 
ATOM     14  O   LIG    1       -3.136   1.867   0.608  0.00  0.00    -0.267 OA
ATOM     15  N   LIG    1       -2.788  -0.362   0.499  0.00  0.00    -0.275 N 
ATOM     16  H   LIG    1       -3.777  -0.474   0.671  0.00  0.00    +0.173 HD
ATOM     17  C   LIG    1       -2.093  -1.528   0.351  0.00  0.00    +0.330 A 
ATOM     18  O   LIG    1       -2.697  -2.600   0.426  0.00  0.00    -0.246 OA
ENDBRANCH   1  10
BRANCH   4  19
ATOM     19  O   LIG    1        5.364   0.128  -1.066  0.00  0.00    -0.437 OA
BRANCH  19  20
ATOM     20  C   LIG    1        6.135  -1.013  -1.218  0.00  0.00    +0.232 A 
ATOM     21  C   LIG    1        7.506  -0.881  -1.494  0.00  0.00    +0.117 A 
ATOM     22  C   LIG    1        8.265  -2.052  -1.642  0.00  0.00    +0.019 A 
ATOM     23  C   LIG    1        7.654  -3.300  -1.515  0.00  0.00    +0.020 A 
ATOM     24  C   LIG    1        6.290  -3.347  -1.240  0.00  0.00    +0.114 A 
ATOM     25  N   LIG    1        5.532  -2.233  -1.091  0.00  0.00    -0.221 NA
BRANCH  21  26
ATOM     26  C   LIG    1        8.151   0.500  -1.628  0.00  0.00    +0.422 C 
ATOM     27  F   LIG    1        7.982   1.187  -0.498  0.00  0.00    -0.166 F 
ATOM     28  F   LIG    1        7.575   1.169  -2.628  0.00  0.00    -0.166 F 
ATOM     29  F   LIG    1        9.460   0.429  -1.877  0.00  0.00    -0.166 F 
ENDBRANCH  21  26
ENDBRANCH  19  20
ENDBRANCH   4  19
TORSDOF 4
