REMARK  Name = DB14940
REMARK                            x       y       z     vdW  Elec       q    Type
REMARK                         _______ _______ _______ _____ _____    ______ ____
ROOT
ATOM      1  CB  ALA A  2       -1.072   1.818   3.272  0.00  0.00    +0.038 C 
ATOM      2  CA  ALA A  2       -1.725   1.097   2.095  0.00  0.00    +0.156 C 
ATOM      3  C   ALA A  2       -1.512   1.923   0.798  0.00  0.00    +0.234 C 
ATOM      4  O   ALA A  2       -2.109   2.970   0.552  0.00  0.00    -0.274 OA
ATOM      5  N   ASP A  1       -0.639   1.384  -0.075  0.00  0.00    -0.302 N 
ATOM      6  H   ASP A  1       -0.481   1.893  -0.933  0.00  0.00    +0.150 HD
ATOM      7  CA  ASP A  1        0.018   0.070   0.065  0.00  0.00    +0.169 C 
ATOM      8  C   ASP A  1       -0.639  -0.920   1.067  0.00  0.00    +0.234 C 
ATOM      9  O   ASP A  1       -0.506  -2.141   1.005  0.00  0.00    -0.274 OA
ATOM     10  N   ALA A  2       -1.420  -0.341   2.000  0.00  0.00    -0.303 N 
ATOM     11  H   ALA A  2       -1.880  -0.958   2.654  0.00  0.00    +0.149 HD
ENDROOT
BRANCH   7  12
ATOM     12  CB  ASP A  1        1.573   0.062   0.197  0.00  0.00    +0.152 C 
BRANCH  12  13
ATOM     13  CG  ASP A  1        2.114   0.836   1.418  0.00  0.00    +0.307 C 
ATOM     14  OD2 ASP A  1        2.412   0.173   2.438  0.00  0.00    -0.251 OA
BRANCH  13  15
ATOM     15  OD1 ASP A  1        2.234   2.078   1.314  0.00  0.00    -0.481 OA
ATOM     16  HD1 ASP A  1        2.559   2.579   2.036  0.00  0.00    +0.295 HD
ENDBRANCH  13  15
ENDBRANCH  12  13
ENDBRANCH   7  12
TORSDOF 3
