REMARK  Name = DB14554
REMARK                            x       y       z     vdW  Elec       q    Type
REMARK                         _______ _______ _______ _____ _____    ______ ____
ROOT
ATOM      1  CA  PHE A  1       -0.045   4.141   2.503  0.00  0.00    +0.163 C 
ATOM      2  N   PHE A  1        0.578   3.545   1.320  0.00  0.00    -0.302 N 
ATOM      3  H   PHE A  1        0.007   2.868   0.833  0.00  0.00    +0.150 HD
ATOM      4  C   PHE A  1        1.805   3.804   0.833  0.00  0.00    +0.234 C 
ATOM      5  O   PHE A  1        2.596   4.599   1.339  0.00  0.00    -0.274 OA
ATOM      6  CA  PHE A  1        2.233   3.043  -0.438  0.00  0.00    +0.163 C 
ATOM      7  N   PHE A  1        1.965   1.599  -0.394  0.00  0.00    -0.302 N 
ATOM      8  H   PHE A  1        2.786   1.036  -0.229  0.00  0.00    +0.150 HD
ATOM      9  C   PHE A  1        0.788   0.948  -0.495  0.00  0.00    +0.235 C 
ATOM     10  O   PHE A  1       -0.296   1.493  -0.699  0.00  0.00    -0.274 OA
ATOM     11  CA  PHE A  1        0.811  -0.587  -0.326  0.00  0.00    +0.169 C 
ATOM     12  CB  PHE A  1        0.125  -1.013   0.988  0.00  0.00    +0.112 C 
ATOM     13  SG  PHE A  1        0.928  -0.435   2.511  0.00  0.00    -0.091 S 
ATOM     14  SG  CYS A  4       -0.306  -1.054   4.006  0.00  0.00    -0.091 S 
ATOM     15  CB  CYS A  4       -1.570   0.252   4.089  0.00  0.00    +0.112 C 
ATOM     16  CA  CYS A  4       -2.434   0.365   5.370  0.00  0.00    +0.169 C 
ATOM     17  N   CYS A  4       -1.669   1.000   6.455  0.00  0.00    -0.302 N 
ATOM     18  H   CYS A  4       -1.853   1.987   6.564  0.00  0.00    +0.150 HD
ATOM     19  C   THR A  3       -0.717   0.463   7.245  0.00  0.00    +0.237 C 
ATOM     20  O   THR A  3       -0.390  -0.723   7.234  0.00  0.00    -0.274 OA
ATOM     21  CA  THR A  3        0.017   1.418   8.211  0.00  0.00    +0.187 C 
ATOM     22  N   THR A  3        0.741   2.492   7.515  0.00  0.00    -0.300 N 
ATOM     23  H   THR A  3        1.738   2.342   7.448  0.00  0.00    +0.150 HD
ATOM     24  C   LYS A  2        0.232   3.574   6.900  0.00  0.00    +0.234 C 
ATOM     25  O   LYS A  2       -0.957   3.896   6.902  0.00  0.00    -0.274 OA
ATOM     26  CA  LYS A  2        1.243   4.450   6.140  0.00  0.00    +0.159 C 
ATOM     27  N   LYS A  2        0.770   4.688   4.778  0.00  0.00    -0.302 N 
ATOM     28  H   LYS A  2        0.372   5.601   4.611  0.00  0.00    +0.150 HD
ATOM     29  C   PHE A  1        0.703   3.765   3.806  0.00  0.00    +0.234 C 
ATOM     30  O   PHE A  1        1.167   2.630   3.921  0.00  0.00    -0.274 OA
ENDROOT
BRANCH  11  31
ATOM     31  N   PHE A  1        2.161  -1.152  -0.341  0.00  0.00    -0.302 N 
ATOM     32  H   PHE A  1        2.579  -1.298   0.567  0.00  0.00    +0.150 HD
ATOM     33  C   PHE A  1        2.873  -1.443  -1.442  0.00  0.00    +0.234 C 
ATOM     34  O   PHE A  1        2.441  -1.326  -2.589  0.00  0.00    -0.274 OA
BRANCH  33  35
ATOM     35  CA  PHE A  1        4.313  -1.938  -1.185  0.00  0.00    +0.163 C 
BRANCH  35  36
ATOM     36  N   PHE A  1        5.260  -1.536  -2.234  0.00  0.00    -0.303 N 
ATOM     37  H   PHE A  1        5.841  -0.750  -1.983  0.00  0.00    +0.149 HD
ATOM     38  C   UNK A  0        5.354  -1.995  -3.496  0.00  0.00    +0.228 C 
ATOM     39  O   UNK A  0        4.717  -2.956  -3.928  0.00  0.00    -0.274 OA
BRANCH  38  40
ATOM     40  C   UNK A  0        6.292  -1.201  -4.425  0.00  0.00    +0.180 C 
BRANCH  40  41
ATOM     41  N   UNK A  0        5.563  -0.683  -5.585  0.00  0.00    -0.292 NA
ATOM     42  C   UNK A  0        6.455  -0.293  -6.692  0.00  0.00    +0.100 C 
ATOM     43  C   UNK A  0        7.378   0.916  -6.373  0.00  0.00    +0.100 C 
ATOM     44  N   UNK A  0        8.249   1.302  -7.498  0.00  0.00    -0.290 NA
ATOM     45  C   UNK A  0        7.452   1.831  -8.629  0.00  0.00    +0.100 C 
ATOM     46  C   UNK A  0        6.666   3.152  -8.382  0.00  0.00    +0.100 C 
ATOM     47  N   UNK A  0        5.383   3.170  -9.088  0.00  0.00    -0.290 NA
ATOM     48  C   UNK A  0        4.249   2.366  -8.621  0.00  0.00    +0.100 C 
ATOM     49  C   UNK A  0        3.845   2.687  -7.162  0.00  0.00    +0.100 C 
ATOM     50  N   UNK A  0        2.837   1.753  -6.630  0.00  0.00    -0.290 NA
ATOM     51  C   UNK A  0        3.436   0.419  -6.402  0.00  0.00    +0.100 C 
ATOM     52  C   UNK A  0        4.524   0.322  -5.292  0.00  0.00    +0.100 C 
BRANCH  44  53
ATOM     53  C   UNK A  0        9.247   2.279  -7.014  0.00  0.00    +0.205 C 
BRANCH  53  54
ATOM     54  C   UNK A  0       10.444   2.425  -7.975  0.00  0.00    +0.319 C 
ATOM     55  O   UNK A  0       10.689   1.670  -8.916  0.00  0.00    -0.250 OA
BRANCH  54  56
ATOM     56  O   UNK A  0       11.220   3.488  -7.617  0.00  0.00    -0.480 OA
ATOM     57  H   UNK A  0       11.980   3.593  -8.193  0.00  0.00    +0.295 HD
ENDBRANCH  54  56
ENDBRANCH  53  54
ENDBRANCH  44  53
BRANCH  47  58
ATOM     58  C   UNK A  0        5.418   3.495 -10.517  0.00  0.00    +0.205 C 
BRANCH  58  59
ATOM     59  C   UNK A  0        4.927   4.932 -10.737  0.00  0.00    +0.319 C 
ATOM     60  O   UNK A  0        3.926   5.200 -11.399  0.00  0.00    -0.250 OA
BRANCH  59  61
ATOM     61  O   UNK A  0        5.736   5.858 -10.142  0.00  0.00    -0.480 OA
ATOM     62  H   UNK A  0        5.426   6.756 -10.283  0.00  0.00    +0.295 HD
ENDBRANCH  59  61
ENDBRANCH  58  59
ENDBRANCH  47  58
BRANCH  50  63
ATOM     63  C   UNK A  0        2.256   2.320  -5.396  0.00  0.00    +0.205 C 
BRANCH  63  64
ATOM     64  C   UNK A  0        0.963   1.593  -4.987  0.00  0.00    +0.319 C 
ATOM     65  O   UNK A  0        0.795   1.113  -3.868  0.00  0.00    -0.250 OA
BRANCH  64  66
ATOM     66  O   UNK A  0        0.032   1.576  -5.985  0.00  0.00    -0.480 OA
ATOM     67  H   UNK A  0       -0.776   1.128  -5.724  0.00  0.00    +0.295 HD
ENDBRANCH  64  66
ENDBRANCH  63  64
ENDBRANCH  50  63
ENDBRANCH  40  41
ENDBRANCH  38  40
ENDBRANCH  35  36
BRANCH  35  68
ATOM     68  CB  PHE A  1        4.422  -3.447  -0.831  0.00  0.00    +0.067 C 
BRANCH  68  69
ATOM     69  CG  PHE A  1        3.471  -3.938   0.251  0.00  0.00    -0.045 A 
ATOM     70  CD2 PHE A  1        3.718  -3.619   1.604  0.00  0.00    +0.004 A 
ATOM     71  CE2 PHE A  1        2.786  -3.950   2.579  0.00  0.00    +0.000 A 
ATOM     72  CZ  PHE A  1        1.598  -4.578   2.226  0.00  0.00    +0.000 A 
ATOM     73  CE1 PHE A  1        1.328  -4.874   0.896  0.00  0.00    +0.000 A 
ATOM     74  CD1 PHE A  1        2.246  -4.548  -0.094  0.00  0.00    +0.004 A 
ENDBRANCH  68  69
ENDBRANCH  35  68
ENDBRANCH  33  35
ENDBRANCH  11  31
BRANCH  16  75
ATOM     75  C   CYS A  4       -3.202  -0.929   5.729  0.00  0.00    +0.235 C 
ATOM     76  N   THR A  5       -3.484  -1.139   7.026  0.00  0.00    -0.299 N 
ATOM     77  H   THR A  5       -3.170  -0.469   7.713  0.00  0.00    +0.150 HD
ATOM     78  O   CYS A  4       -3.545  -1.692   4.825  0.00  0.00    -0.274 OA
BRANCH  76  79
ATOM     79  CA  THR A  5       -4.222  -2.287   7.554  0.00  0.00    +0.210 C 
BRANCH  79  80
ATOM     80  CB  THR A  5       -4.028  -2.410   9.090  0.00  0.00    +0.143 C 
ATOM     81  CG2 THR A  5       -4.793  -3.567   9.762  0.00  0.00    +0.040 C 
BRANCH  80  82
ATOM     82  OG1 THR A  5       -2.652  -2.591   9.367  0.00  0.00    -0.390 OA
ATOM     83  HG1 THR A  5       -2.380  -3.444   9.021  0.00  0.00    +0.210 HD
ENDBRANCH  80  82
ENDBRANCH  79  80
BRANCH  79  84
ATOM     84  C   THR A  5       -5.734  -2.166   7.258  0.00  0.00    +0.328 C 
ATOM     85  O   THR A  5       -6.400  -1.186   7.527  0.00  0.00    -0.249 OA
BRANCH  84  86
ATOM     86  OXT THR A  5       -6.188  -3.308   6.662  0.00  0.00    -0.479 OA
ATOM     87  HXT THR A  5       -7.124  -3.266   6.455  0.00  0.00    +0.295 HD
ENDBRANCH  84  86
ENDBRANCH  79  84
ENDBRANCH  76  79
ENDBRANCH  16  75
BRANCH  21  88
ATOM     88  CB  THR A  3       -0.963   1.905   9.322  0.00  0.00    +0.141 C 
ATOM     89  CG2 THR A  3       -1.662   0.784  10.112  0.00  0.00    +0.040 C 
BRANCH  88  90
ATOM     90  OG1 THR A  3       -0.254   2.711  10.243  0.00  0.00    -0.390 OA
ATOM     91  HG1 THR A  3        0.073   3.485   9.778  0.00  0.00    +0.210 HD
ENDBRANCH  88  90
ENDBRANCH  21  88
BRANCH   1  92
ATOM     92  CB  PHE A  1       -0.317   5.653   2.264  0.00  0.00    +0.069 C 
BRANCH  92  96
ATOM     93  NE1 PHE A  1       -2.916   6.895   4.564  0.00  0.00    -0.360 N 
ATOM     94  HE1 PHE A  1       -3.854   6.836   4.932  0.00  0.00    +0.165 HD
ATOM     95  CD1 PHE A  1       -2.463   6.075   3.552  0.00  0.00    +0.087 A 
ATOM     96  CG  PHE A  1       -1.172   6.367   3.273  0.00  0.00    -0.020 A 
ATOM     97  CD2 PHE A  1       -0.806   7.459   4.174  0.00  0.00    +0.003 A 
ATOM     98  CE3 PHE A  1        0.371   8.212   4.398  0.00  0.00    +0.010 A 
ATOM     99  CZ3 PHE A  1        0.420   9.216   5.387  0.00  0.00    +0.001 A 
ATOM    100  CH2 PHE A  1       -0.712   9.493   6.178  0.00  0.00    +0.002 A 
ATOM    101  CZ2 PHE A  1       -1.900   8.767   5.980  0.00  0.00    +0.026 A 
ATOM    102  CE2 PHE A  1       -1.936   7.767   4.992  0.00  0.00    +0.047 A 
ENDBRANCH  92  96
ENDBRANCH   1  92
BRANCH   6 103
ATOM    103  CB  PHE A  1        1.714   3.695  -1.745  0.00  0.00    +0.067 C 
BRANCH 103 104
ATOM    104  CG  PHE A  1        1.975   5.186  -1.880  0.00  0.00    -0.045 A 
ATOM    105  CD2 PHE A  1        0.959   6.117  -1.577  0.00  0.00    +0.007 A 
ATOM    106  CE2 PHE A  1        1.211   7.499  -1.679  0.00  0.00    +0.045 A 
ATOM    107  CZ  PHE A  1        2.479   7.955  -2.089  0.00  0.00    +0.117 A 
ATOM    108  CE1 PHE A  1        3.494   7.028  -2.399  0.00  0.00    +0.045 A 
ATOM    109  CD1 PHE A  1        3.242   5.646  -2.295  0.00  0.00    +0.007 A 
BRANCH 107 110
ATOM    110  OH  PHE A  1        2.726   9.294  -2.183  0.00  0.00    -0.507 OA
ATOM    111  HH  PHE A  1        1.971   9.833  -1.938  0.00  0.00    +0.292 HD
ENDBRANCH 107 110
ENDBRANCH 103 104
ENDBRANCH   6 103
BRANCH  26 112
ATOM    112  CB  LYS A  2        1.459   5.817   6.824  0.00  0.00    +0.032 C 
BRANCH 112 113
ATOM    113  CG  LYS A  2        2.048   5.736   8.242  0.00  0.00    +0.003 C 
BRANCH 113 114
ATOM    114  CD  LYS A  2        2.323   7.128   8.835  0.00  0.00    +0.015 C 
BRANCH 114 115
ATOM    115  CE  LYS A  2        2.865   7.086  10.272  0.00  0.00    +0.077 C 
BRANCH 115 116
ATOM    116  NZ  LYS A  2        4.205   6.534  10.301  0.00  0.00    -0.330 NA
ATOM    117  HZ1 LYS A  2        4.185   5.573   9.991  0.00  0.00    +0.118 HD
ATOM    118  HZ2 LYS A  2        4.545   6.520  11.252  0.00  0.00    +0.118 HD
ENDBRANCH 115 116
ENDBRANCH 114 115
ENDBRANCH 113 114
ENDBRANCH 112 113
ENDBRANCH  26 112
TORSDOF 34
