REMARK  Name = DB14502
REMARK                            x       y       z     vdW  Elec       q    Type
REMARK                         _______ _______ _______ _____ _____    ______ ____
ROOT
ATOM      1  O   LIG    1       -0.478   1.473   0.007  0.00  0.00    -0.228 OA
ATOM      2  P   LIG    1       -0.069  -0.011  -0.008  0.00  0.00    +0.470 P 
ENDROOT
BRANCH   2   3
ATOM      3  O   LIG    1       -0.495  -0.768   1.263  0.00  0.00    -0.303 OA
ATOM      4  H   LIG    1       -1.463  -0.797   1.312  0.00  0.00    +0.222 HD
ENDBRANCH   2   3
BRANCH   2   5
ATOM      5  O   LIG    1        1.681  -0.020   0.006  0.00  0.00    -0.303 OA
ATOM      6  H   LIG    1        2.132  -0.866  -0.000  0.00  0.00    +0.222 HD
ENDBRANCH   2   5
BRANCH   2   7
ATOM      7  O   LIG    1       -0.473  -0.736  -1.305  0.00  0.00    -0.303 OA
ATOM      8  H   LIG    1       -0.181  -0.217  -2.070  0.00  0.00    +0.222 HD
ENDBRANCH   2   7
TORSDOF 3
