REMARK  Name = DB14485
REMARK                            x       y       z     vdW  Elec       q    Type
REMARK                         _______ _______ _______ _____ _____    ______ ____
ROOT
ATOM      1  C   LIG    1       -1.298   0.302  -1.953  0.00  0.00    +0.244 C 
ATOM      2  C   LIG    1       -1.281   1.519  -1.155  0.00  0.00    +0.378 C 
ATOM      3  O   LIG    1       -1.856   2.581  -1.388  0.00  0.00    -0.241 OA
ATOM      4  O   LIG    1       -0.512   1.292  -0.062  0.00  0.00    -0.445 OA
ATOM      5  C   LIG    1        0.039  -0.020  -0.065  0.00  0.00    +0.276 C 
ATOM      6  C   LIG    1       -0.542  -0.605  -1.329  0.00  0.00    +0.186 C 
ENDROOT
BRANCH   6   7
ATOM      7  O   LIG    1       -0.306  -1.831  -1.653  0.00  0.00    -0.504 OA
ATOM      8  H   LIG    1       -0.671  -2.185  -2.440  0.00  0.00    +0.292 HD
ENDBRANCH   6   7
BRANCH   1   9
ATOM      9  O   LIG    1       -2.030   0.275  -3.103  0.00  0.00    -0.499 OA
ATOM     10  H   LIG    1       -1.947  -0.590  -3.513  0.00  0.00    +0.293 HD
ENDBRANCH   1   9
BRANCH   5  11
ATOM     11  C   LIG    1        1.595   0.045   0.007  0.00  0.00    +0.188 C 
BRANCH  11  12
ATOM     12  O   LIG    1        2.137   0.670  -1.147  0.00  0.00    -0.385 OA
ATOM     13  H   LIG    1        1.794   0.221  -1.924  0.00  0.00    +0.210 HD
ENDBRANCH  11  12
BRANCH  11  14
ATOM     14  C   LIG    1        2.102   0.766   1.276  0.00  0.00    +0.191 C 
BRANCH  14  15
ATOM     15  O   LIG    1        3.486   0.552   1.479  0.00  0.00    -0.392 OA
ATOM     16  H   LIG    1        3.760   1.046   2.255  0.00  0.00    +0.210 HD
ENDBRANCH  14  15
ENDBRANCH  11  14
ENDBRANCH   5  11
TORSDOF 6
