REMARK  Name = DB14810
REMARK                            x       y       z     vdW  Elec       q    Type
REMARK                         _______ _______ _______ _____ _____    ______ ____
ROOT
ATOM      1  C   LIG    1        1.369   0.419  -0.027  0.00  0.00    +0.125 A 
ATOM      2  C   LIG    1        2.129  -0.710   0.281  0.00  0.00    +0.092 A 
ATOM      3  C   LIG    1        3.507  -0.616   0.464  0.00  0.00    +0.135 A 
ATOM      4  C   LIG    1        4.144   0.617   0.323  0.00  0.00    +0.059 A 
ATOM      5  C   LIG    1        3.410   1.774   0.012  0.00  0.00    +0.044 A 
ATOM      6  C   LIG    1        2.021   1.658  -0.153  0.00  0.00    +0.059 A 
ENDROOT
BRANCH   5   7
ATOM      7  C   LIG    1        4.080   3.125  -0.139  0.00  0.00    +0.250 C 
ATOM      8  N   LIG    1        5.417   3.098  -0.357  0.00  0.00    -0.265 N 
ATOM      9  H   LIG    1        5.852   2.188  -0.377  0.00  0.00    +0.157 HD
ATOM     10  O   LIG    1        3.409   4.158  -0.081  0.00  0.00    -0.270 OA
BRANCH   8  11
ATOM     11  C   LIG    1        6.297   4.176  -0.562  0.00  0.00    +0.143 A 
ATOM     12  C   LIG    1        7.654   3.866  -0.717  0.00  0.00    +0.154 A 
ATOM     13  N   LIG    1        8.591   4.828  -0.928  0.00  0.00    -0.255 NA
ATOM     14  C   LIG    1        8.160   6.115  -0.987  0.00  0.00    +0.056 A 
ATOM     15  C   LIG    1        9.220   7.173  -1.226  0.00  0.00    +0.067 C 
ATOM     16  C   LIG    1        6.809   6.439  -0.833  0.00  0.00    +0.136 A 
ATOM     17  N   LIG    1        5.875   5.475  -0.622  0.00  0.00    -0.237 NA
ENDBRANCH   8  11
ENDBRANCH   5   7
BRANCH   1  18
ATOM     18  O   LIG    1        0.008   0.219  -0.180  0.00  0.00    -0.487 OA
BRANCH  18  19
ATOM     19  C   LIG    1       -0.859   1.289  -0.565  0.00  0.00    +0.196 C 
ATOM     20  C   LIG    1       -0.716   1.584  -2.074  0.00  0.00    +0.054 C 
BRANCH  19  21
ATOM     21  C   LIG    1       -2.288   0.853  -0.188  0.00  0.00    +0.203 C 
BRANCH  21  23
ATOM     22  C   LIG    1       -4.560   1.548  -0.218  0.00  0.00    +0.194 C 
ATOM     23  O   LIG    1       -3.213   1.882  -0.517  0.00  0.00    -0.379 OA
ENDBRANCH  21  23
ENDBRANCH  19  21
ENDBRANCH  18  19
ENDBRANCH   1  18
BRANCH   3  24
ATOM     24  O   LIG    1        4.240  -1.746   0.745  0.00  0.00    -0.436 OA
BRANCH  24  25
ATOM     25  C   LIG    1        4.603  -2.067   2.040  0.00  0.00    +0.239 A 
ATOM     26  C   LIG    1        5.392  -3.195   2.268  0.00  0.00    +0.179 A 
ATOM     27  N   LIG    1        5.779  -3.550   3.519  0.00  0.00    -0.244 NA
ATOM     28  C   LIG    1        5.379  -2.774   4.569  0.00  0.00    +0.144 A 
ATOM     29  C   LIG    1        4.581  -1.642   4.330  0.00  0.00    +0.147 A 
ATOM     30  N   LIG    1        4.193  -1.282   3.079  0.00  0.00    -0.217 NA
BRANCH  28  31
ATOM     31  C   LIG    1        5.790  -3.138   5.987  0.00  0.00    +0.266 C 
ATOM     32  N   LIG    1        6.628  -4.176   6.221  0.00  0.00    -0.296 N 
ATOM     33  C   LIG    1        7.149  -4.697   7.507  0.00  0.00    +0.109 C 
ATOM     34  C   LIG    1        7.924  -5.728   6.668  0.00  0.00    +0.038 C 
ATOM     35  C   LIG    1        7.346  -5.152   5.364  0.00  0.00    +0.109 C 
ATOM     36  O   LIG    1        5.353  -2.473   6.928  0.00  0.00    -0.268 OA
ENDBRANCH  28  31
ENDBRANCH  24  25
ENDBRANCH   3  24
TORSDOF 9
