REMARK  Name = DB14815
REMARK                            x       y       z     vdW  Elec       q    Type
REMARK                         _______ _______ _______ _____ _____    ______ ____
ROOT
ATOM      1  C   LIG    1       -4.995  -3.072   1.958  0.00  0.00    +0.126 C 
ATOM      2  C   LIG    1       -4.226  -1.935   1.224  0.00  0.00    +0.039 C 
ATOM      3  C   LIG    1       -2.696  -1.845   1.496  0.00  0.00    -0.021 C 
ATOM      4  C   LIG    1       -2.503  -1.877   3.072  0.00  0.00    +0.004 C 
ATOM      5  C   LIG    1       -1.023  -1.578   3.492  0.00  0.00    +0.036 C 
ATOM      6  C   LIG    1       -0.370  -0.348   2.815  0.00  0.00    +0.119 C 
ATOM      7  C   LIG    1       -0.607  -0.340   1.284  0.00  0.00    +0.030 C 
ATOM      8  C   LIG    1       -0.049   0.807   0.380  0.00  0.00    +0.027 C 
ATOM      9  C   LIG    1       -0.911   0.667  -0.904  0.00  0.00    +0.007 C 
ATOM     10  C   LIG    1       -2.097  -0.261  -0.583  0.00  0.00    +0.008 C 
ATOM     11  C   LIG    1       -3.226  -3.055   3.871  0.00  0.00    -0.023 C 
ATOM     12  C   LIG    1       -2.561  -4.440   3.577  0.00  0.00    +0.012 C 
ATOM     13  C   LIG    1       -3.100  -2.754   5.399  0.00  0.00    +0.010 C 
ATOM     14  C   LIG    1       -3.917  -3.677   6.314  0.00  0.00    +0.032 C 
ATOM     15  C   LIG    1       -5.408  -3.660   5.943  0.00  0.00    +0.121 C 
ATOM     16  C   LIG    1       -5.720  -3.940   4.425  0.00  0.00    -0.003 C 
ATOM     17  C   LIG    1       -5.504  -5.448   4.122  0.00  0.00    +0.014 C 
ATOM     18  C   LIG    1       -7.222  -3.567   4.255  0.00  0.00    +0.014 C 
ATOM     19  C   LIG    1       -2.026  -3.095   0.828  0.00  0.00    +0.012 C 
ATOM     20  C   LIG    1       -2.126  -0.438   0.958  0.00  0.00    -0.021 C 
ATOM     21  C   LIG    1       -2.908   0.820   1.500  0.00  0.00    +0.012 C 
ATOM     22  C   LIG    1       -4.783  -3.008   3.520  0.00  0.00    +0.032 C 
ENDROOT
BRANCH   6  23
ATOM     23  O   LIG    1        1.007  -0.338   3.116  0.00  0.00    -0.391 OA
ATOM     24  H   LIG    1        1.403  -1.137   2.761  0.00  0.00    +0.210 HD
ENDBRANCH   6  23
BRANCH   8  25
ATOM     25  C   LIG    1        1.508   0.904   0.114  0.00  0.00    +0.073 C 
ATOM     26  C   LIG    1        1.806   1.874  -1.065  0.00  0.00    +0.042 C 
BRANCH  25  27
ATOM     27  C   LIG    1        2.131  -0.495  -0.192  0.00  0.00    +0.039 C 
BRANCH  27  28
ATOM     28  C   LIG    1        3.620  -0.545  -0.615  0.00  0.00    +0.030 C 
BRANCH  28  29
ATOM     29  C   LIG    1        4.606   0.012   0.402  0.00  0.00    -0.028 C 
ATOM     30  C   LIG    1        5.157  -0.637   1.450  0.00  0.00    -0.080 C 
ATOM     31  C   LIG    1        6.137   0.057   2.381  0.00  0.00    +0.038 C 
ATOM     32  C   LIG    1        4.856  -2.082   1.820  0.00  0.00    +0.038 C 
ENDBRANCH  28  29
ENDBRANCH  27  28
ENDBRANCH  25  27
BRANCH  25  33
ATOM     33  O   LIG    1        2.251   1.385   1.252  0.00  0.00    -0.342 OA
BRANCH  33  34
ATOM     34  C   LIG    1        1.867   2.511   2.001  0.00  0.00    +0.282 C 
ATOM     35  C   LIG    1        3.004   2.791   2.999  0.00  0.00    +0.201 C 
ATOM     36  C   LIG    1        2.690   4.070   3.817  0.00  0.00    +0.179 C 
ATOM     37  C   LIG    1        2.251   5.243   2.910  0.00  0.00    +0.177 C 
ATOM     38  C   LIG    1        1.181   4.774   1.893  0.00  0.00    +0.178 C 
ATOM     39  O   LIG    1        1.699   3.641   1.188  0.00  0.00    -0.341 OA
BRANCH  35  40
ATOM     40  O   LIG    1        3.240   1.683   3.849  0.00  0.00    -0.384 OA
ATOM     41  H   LIG    1        3.468   0.927   3.302  0.00  0.00    +0.210 HD
ENDBRANCH  35  40
BRANCH  37  42
ATOM     42  O   LIG    1        1.789   6.339   3.681  0.00  0.00    -0.386 OA
ATOM     43  H   LIG    1        2.505   6.632   4.251  0.00  0.00    +0.210 HD
ENDBRANCH  37  42
BRANCH  36  44
ATOM     44  O   LIG    1        3.784   4.440   4.641  0.00  0.00    -0.386 OA
ATOM     45  H   LIG    1        4.542   4.620   4.081  0.00  0.00    +0.210 HD
ENDBRANCH  36  44
BRANCH  38  46
ATOM     46  C   LIG    1        0.816   5.856   0.856  0.00  0.00    +0.190 C 
BRANCH  46  47
ATOM     47  O   LIG    1       -0.243   5.420   0.027  0.00  0.00    -0.392 OA
ATOM     48  H   LIG    1       -0.445   6.115  -0.603  0.00  0.00    +0.210 HD
ENDBRANCH  46  47
ENDBRANCH  38  46
ENDBRANCH  33  34
ENDBRANCH  25  33
ENDBRANCH   8  25
BRANCH  15  49
ATOM     49  O   LIG    1       -6.106  -4.505   6.845  0.00  0.00    -0.391 OA
ATOM     50  H   LIG    1       -5.768  -5.398   6.749  0.00  0.00    +0.210 HD
ENDBRANCH  15  49
BRANCH   1  51
ATOM     51  O   LIG    1       -6.364  -3.178   1.539  0.00  0.00    -0.345 OA
BRANCH  51  52
ATOM     52  C   LIG    1       -7.097  -2.039   1.180  0.00  0.00    +0.282 C 
ATOM     53  C   LIG    1       -8.541  -2.473   0.847  0.00  0.00    +0.208 C 
ATOM     54  C   LIG    1       -9.402  -1.219   0.550  0.00  0.00    +0.179 C 
ATOM     55  C   LIG    1       -9.235  -0.123   1.628  0.00  0.00    +0.177 C 
ATOM     56  C   LIG    1       -7.734   0.122   1.916  0.00  0.00    +0.178 C 
ATOM     57  O   LIG    1       -7.112  -1.122   2.241  0.00  0.00    -0.341 OA
BRANCH  54  58
ATOM     58  O   LIG    1      -10.767  -1.575   0.406  0.00  0.00    -0.386 OA
ATOM     59  H   LIG    1      -11.070  -1.277  -0.455  0.00  0.00    +0.210 HD
ENDBRANCH  54  58
BRANCH  55  60
ATOM     60  O   LIG    1       -9.888   1.080   1.254  0.00  0.00    -0.386 OA
ATOM     61  H   LIG    1       -9.979   1.631   2.035  0.00  0.00    +0.210 HD
ENDBRANCH  55  60
BRANCH  53  62
ATOM     62  O   LIG    1       -8.641  -3.340  -0.291  0.00  0.00    -0.338 OA
BRANCH  62  63
ATOM     63  C   LIG    1       -8.309  -4.695  -0.143  0.00  0.00    +0.282 C 
ATOM     64  C   LIG    1       -9.152  -5.499  -1.147  0.00  0.00    +0.201 C 
ATOM     65  C   LIG    1       -8.713  -5.186  -2.599  0.00  0.00    +0.179 C 
ATOM     66  C   LIG    1       -7.187  -5.345  -2.767  0.00  0.00    +0.174 C 
ATOM     67  C   LIG    1       -6.447  -4.568  -1.650  0.00  0.00    +0.149 C 
ATOM     68  C   LIG    1       -4.928  -4.813  -1.652  0.00  0.00    +0.041 C 
ATOM     69  O   LIG    1       -6.938  -4.942  -0.356  0.00  0.00    -0.343 OA
BRANCH  64  70
ATOM     70  O   LIG    1       -9.092  -6.884  -0.847  0.00  0.00    -0.384 OA
ATOM     71  H   LIG    1       -9.513  -7.029   0.004  0.00  0.00    +0.210 HD
ENDBRANCH  64  70
BRANCH  65  72
ATOM     72  O   LIG    1       -9.448  -5.945  -3.545  0.00  0.00    -0.386 OA
ATOM     73  H   LIG    1       -9.262  -6.875  -3.396  0.00  0.00    +0.210 HD
ENDBRANCH  65  72
BRANCH  66  74
ATOM     74  O   LIG    1       -6.763  -4.929  -4.055  0.00  0.00    -0.387 OA
ATOM     75  H   LIG    1       -5.868  -5.245  -4.198  0.00  0.00    +0.210 HD
ENDBRANCH  66  74
ENDBRANCH  62  63
ENDBRANCH  53  62
BRANCH  56  76
ATOM     76  C   LIG    1       -7.447   1.117   3.063  0.00  0.00    +0.190 C 
BRANCH  76  77
ATOM     77  O   LIG    1       -8.044   0.713   4.281  0.00  0.00    -0.392 OA
ATOM     78  H   LIG    1       -7.810   1.347   4.963  0.00  0.00    +0.210 HD
ENDBRANCH  76  77
ENDBRANCH  56  76
ENDBRANCH  51  52
ENDBRANCH   1  51
TORSDOF 24
