REMARK  Name = DB14173
REMARK                            x       y       z     vdW  Elec       q    Type
REMARK                         _______ _______ _______ _____ _____    ______ ____
ROOT
ATOM      1  O   LIG    1        1.437   1.178   2.373  0.00  0.00    -0.271 OA
ATOM      2  C   LIG    1        1.860   1.054   1.223  0.00  0.00    +0.264 C 
ATOM      3  C   LIG    1        1.296   0.150   0.145  0.00  0.00    +0.260 C 
ATOM      4  N   LIG    1        1.875   0.768  -1.023  0.00  0.00    -0.235 N 
ATOM      5  C   LIG    1        3.007   1.431  -0.703  0.00  0.00    +0.316 C 
ATOM      6  O   LIG    1        3.970   1.672  -1.433  0.00  0.00    -0.252 OA
ATOM      7  N   LIG    1        2.905   1.674   0.632  0.00  0.00    -0.199 N 
ENDROOT
BRANCH   3   8
ATOM      8  N   LIG    1       -0.195   0.056   0.168  0.00  0.00    -0.235 N 
ATOM      9  C   LIG    1       -0.804  -1.167   0.079  0.00  0.00    +0.307 C 
ATOM     10  N   LIG    1       -2.153  -1.161   0.136  0.00  0.00    -0.276 N 
ATOM     11  H   LIG    1       -2.614  -0.263   0.145  0.00  0.00    +0.152 HD
ATOM     12  O   LIG    1       -0.176  -2.225  -0.018  0.00  0.00    -0.252 OA
BRANCH   8  13
ATOM     13  C   LIG    1       -0.947   1.337   0.115  0.00  0.00    +0.270 C 
BRANCH  13  14
ATOM     14  O   LIG    1       -1.621   1.668   1.313  0.00  0.00    -0.377 OA
ATOM     15  H   LIG    1       -2.041   2.524   1.203  0.00  0.00    +0.211 HD
ENDBRANCH  13  14
ENDBRANCH   8  13
BRANCH  10  16
ATOM     16  C   LIG    1       -3.014  -2.314  -0.108  0.00  0.00    +0.265 C 
BRANCH  16  17
ATOM     17  O   LIG    1       -3.214  -3.124   1.031  0.00  0.00    -0.377 OA
ATOM     18  H   LIG    1       -3.562  -3.972   0.747  0.00  0.00    +0.211 HD
ENDBRANCH  16  17
ENDBRANCH  10  16
ENDBRANCH   3   8
BRANCH   4  19
ATOM     19  C   LIG    1        1.587   0.312  -2.388  0.00  0.00    +0.270 C 
BRANCH  19  20
ATOM     20  O   LIG    1        2.124  -0.958  -2.693  0.00  0.00    -0.377 OA
ATOM     21  H   LIG    1        1.909  -1.172  -3.604  0.00  0.00    +0.211 HD
ENDBRANCH  19  20
ENDBRANCH   4  19
BRANCH   7  22
ATOM     22  C   LIG    1        3.627   2.776   1.288  0.00  0.00    +0.276 C 
BRANCH  22  23
ATOM     23  O   LIG    1        2.999   4.038   1.160  0.00  0.00    -0.376 OA
ATOM     24  H   LIG    1        3.533   4.692   1.617  0.00  0.00    +0.211 HD
ENDBRANCH  22  23
ENDBRANCH   7  22
TORSDOF 9
