REMARK  Name = DB14876
REMARK                            x       y       z     vdW  Elec       q    Type
REMARK                         _______ _______ _______ _____ _____    ______ ____
ROOT
ATOM      1  N   LIG    1        1.443  -0.089  -0.107  0.00  0.00    -0.213 N 
ATOM      2  C   LIG    1        2.305   0.626  -0.923  0.00  0.00    +0.166 A 
ATOM      3  N   LIG    1        1.981   1.465  -1.916  0.00  0.00    -0.235 NA
ATOM      4  C   LIG    1        3.034   2.007  -2.579  0.00  0.00    +0.115 A 
ATOM      5  C   LIG    1        4.372   1.753  -2.280  0.00  0.00    +0.046 A 
ATOM      6  C   LIG    1        4.689   0.890  -1.224  0.00  0.00    +0.061 A 
ATOM      7  C   LIG    1        3.623   0.280  -0.521  0.00  0.00    +0.066 A 
ATOM      8  C   LIG    1        3.429  -0.674   0.538  0.00  0.00    +0.077 A 
ATOM      9  N   LIG    1        2.147  -0.816   0.783  0.00  0.00    -0.168 NA
ENDROOT
BRANCH   1  11
ATOM     10  C   LIG    1       -0.765  -1.226  -0.068  0.00  0.00    -0.021 A 
ATOM     11  C   LIG    1        0.028  -0.057  -0.050  0.00  0.00    +0.071 A 
ATOM     12  C   LIG    1       -0.596   1.195  -0.040  0.00  0.00    +0.029 A 
ATOM     13  C   LIG    1       -1.983   1.300  -0.015  0.00  0.00    +0.015 A 
ATOM     14  C   LIG    1       -2.790   0.153  -0.014  0.00  0.00    +0.037 A 
ATOM     15  C   LIG    1       -2.160  -1.100  -0.043  0.00  0.00    +0.018 A 
BRANCH  14  16
ATOM     16  C   LIG    1       -4.303   0.238   0.009  0.00  0.00    +0.242 C 
ATOM     17  O   LIG    1       -5.005  -0.773  -0.013  0.00  0.00    -0.270 OA
ATOM     18  N   LIG    1       -4.853   1.456   0.056  0.00  0.00    -0.325 N 
ATOM     19  H   LIG    1       -5.858   1.556   0.074  0.00  0.00    +0.145 HD
ATOM     20  H   LIG    1       -4.270   2.280   0.074  0.00  0.00    +0.145 HD
ENDBRANCH  14  16
BRANCH  10  22
ATOM     21  C   LIG    1        0.447  -2.955  -1.520  0.00  0.00    +0.009 C 
ATOM     22  C   LIG    1       -0.176  -2.638  -0.151  0.00  0.00    +0.034 C 
ENDBRANCH  10  22
ENDBRANCH   1  11
BRANCH   6  23
ATOM     23  N   LIG    1        6.036   0.665  -0.900  0.00  0.00    -0.304 N 
ATOM     24  C   LIG    1        6.660   0.842   0.309  0.00  0.00    +0.121 A 
ATOM     25  C   LIG    1        7.996   0.509   0.120  0.00  0.00    +0.092 A 
ATOM     26  N   LIG    1        8.217   0.169  -1.141  0.00  0.00    -0.235 NA
ATOM     27  C   LIG    1        7.055   0.279  -1.738  0.00  0.00    +0.204 A 
BRANCH  25  28
ATOM     28  C   LIG    1        9.051   0.518   1.120  0.00  0.00    +0.039 A 
ATOM     29  C   LIG    1        8.948   0.841   2.483  0.00  0.00    +0.144 A 
ATOM     30  N   LIG    1       10.089   0.750   3.129  0.00  0.00    -0.179 NA
ATOM     31  N   LIG    1       10.970   0.368   2.197  0.00  0.00    -0.274 N 
ATOM     32  C   LIG    1       12.357   0.156   2.571  0.00  0.00    +0.172 C 
ATOM     33  C   LIG    1       10.395   0.207   0.963  0.00  0.00    +0.118 A 
ENDBRANCH  25  28
ENDBRANCH   6  23
BRANCH   8  34
ATOM     34  C   LIG    1        4.450  -1.473   1.343  0.00  0.00    +0.034 C 
ATOM     35  C   LIG    1        4.593  -0.923   2.775  0.00  0.00    +0.014 C 
ATOM     36  C   LIG    1        4.121  -2.980   1.361  0.00  0.00    +0.014 C 
ENDBRANCH   8  34
TORSDOF 6
