REMARK  Name = DB14955
REMARK                            x       y       z     vdW  Elec       q    Type
REMARK                         _______ _______ _______ _____ _____    ______ ____
ROOT
ATOM      1  C   LIG    1        1.540   0.288  -1.052  0.00  0.00    -0.070 C 
ATOM      2  C   LIG    1        2.454  -0.943  -0.889  0.00  0.00    +0.000 C 
ATOM      3  C   LIG    1        2.017  -2.042  -1.910  0.00  0.00    +0.048 C 
ATOM      4  C   LIG    1        1.686  -1.093  -3.107  0.00  0.00    +0.015 C 
ATOM      5  C   LIG    1        1.170   0.247  -2.549  0.00  0.00    -0.015 C 
ENDROOT
BRANCH   3   6
ATOM      6  C   LIG    1        0.683  -2.703  -1.379  0.00  0.00    +0.222 C 
ATOM      7  N   LIG    1        0.673  -3.498  -0.276  0.00  0.00    -0.295 N 
ATOM      8  C   LIG    1        1.787  -3.919   0.605  0.00  0.00    +0.095 C 
ATOM      9  C   LIG    1        1.966  -5.434   0.355  0.00  0.00    +0.129 C 
ATOM     10  N   LIG    1        0.750  -6.052   0.902  0.00  0.00    -0.309 N 
ATOM     11  C   LIG    1        0.030  -4.891   1.453  0.00  0.00    +0.094 C 
ATOM     12  C   LIG    1        1.106  -3.944   1.960  0.00  0.00    +0.048 C 
ATOM     13  C   LIG    1       -0.560  -4.083   0.281  0.00  0.00    +0.130 C 
ATOM     14  O   LIG    1       -0.383  -2.447  -1.947  0.00  0.00    -0.275 OA
BRANCH  10  15
ATOM     15  C   LIG    1        0.227  -7.311   0.580  0.00  0.00    +0.125 A 
ATOM     16  C   LIG    1        0.984  -8.265  -0.117  0.00  0.00    +0.076 A 
ATOM     17  C   LIG    1        0.390  -9.510  -0.367  0.00  0.00    +0.149 A 
ATOM     18  N   LIG    1       -0.871  -9.804   0.056  0.00  0.00    -0.231 NA
ATOM     19  C   LIG    1       -1.520  -8.826   0.735  0.00  0.00    +0.223 A 
ATOM     20  N   LIG    1       -1.030  -7.594   1.025  0.00  0.00    -0.221 NA
BRANCH  17  21
ATOM     21  C   LIG    1        1.115 -10.621  -1.124  0.00  0.00    +0.434 C 
ATOM     22  F   LIG    1        1.219 -11.703  -0.351  0.00  0.00    -0.164 F 
ATOM     23  F   LIG    1        2.344 -10.256  -1.495  0.00  0.00    -0.164 F 
ATOM     24  F   LIG    1        0.429 -10.943  -2.221  0.00  0.00    -0.164 F 
ENDBRANCH  17  21
ENDBRANCH  10  15
ENDBRANCH   3   6
BRANCH   1  25
ATOM     25  N   LIG    1        0.346   0.265  -0.075  0.00  0.00    +0.385 N 
ATOM     26  H   LIG    1       -0.340  -0.393  -0.421  0.00  0.00    -0.085 HD
ATOM     27  H   LIG    1        0.653  -0.126   0.804  0.00  0.00    -0.085 HD
BRANCH  25  29
ATOM     28  C   LIG    1       -1.371   1.320   1.389  0.00  0.00    +0.130 C 
ATOM     29  C   LIG    1       -0.359   1.601   0.243  0.00  0.00    -0.038 C 
ATOM     30  C   LIG    1       -1.127   2.120  -0.999  0.00  0.00    +0.015 C 
ATOM     31  C   LIG    1       -2.080   3.282  -0.642  0.00  0.00    +0.158 C 
ATOM     32  O   LIG    1       -2.919   2.932   0.459  0.00  0.00    -0.377 OA
ATOM     33  C   LIG    1       -2.188   2.610   1.641  0.00  0.00    +0.189 C 
BRANCH  28  35
ATOM     34  C   LIG    1       -2.958  -0.358   2.106  0.00  0.00    +0.194 C 
ATOM     35  O   LIG    1       -2.213   0.216   1.039  0.00  0.00    -0.379 OA
ENDBRANCH  28  35
ENDBRANCH  25  29
ENDBRANCH   1  25
BRANCH   3  36
ATOM     36  C   LIG    1        3.109  -3.114  -2.311  0.00  0.00    -0.002 C 
ATOM     37  C   LIG    1        2.652  -4.048  -3.456  0.00  0.00    +0.008 C 
ATOM     38  C   LIG    1        4.520  -2.559  -2.623  0.00  0.00    +0.008 C 
ENDBRANCH   3  36
TORSDOF 7
