REMARK  Name = DB14075
REMARK                            x       y       z     vdW  Elec       q    Type
REMARK                         _______ _______ _______ _____ _____    ______ ____
ROOT
ATOM      1  C   LIG    1        0.913  -1.071  -0.434  0.00  0.00    +0.215 C 
ENDROOT
BRANCH   1   6
ATOM      2  N   LIG    1       -1.935   1.004   0.168  0.00  0.00    -0.273 N 
ATOM      3  H   LIG    1       -2.522   0.422  -0.411  0.00  0.00    +0.152 HD
ATOM      4  C   LIG    1       -0.784   0.439   0.583  0.00  0.00    +0.302 C 
ATOM      5  O   LIG    1       -0.069   0.885   1.481  0.00  0.00    -0.253 OA
ATOM      6  N   LIG    1       -0.455  -0.615  -0.179  0.00  0.00    -0.284 N 
ATOM      7  H   LIG    1       -1.179  -1.060  -0.724  0.00  0.00    +0.152 HD
BRANCH   2   8
ATOM      8  C   LIG    1       -2.313   2.436   0.149  0.00  0.00    +0.256 C 
ATOM      9  C   LIG    1       -2.104   3.172   1.463  0.00  0.00    +0.259 C 
ATOM     10  O   LIG    1       -2.770   3.045   2.489  0.00  0.00    -0.271 OA
ATOM     11  N   LIG    1       -1.068   4.001   1.247  0.00  0.00    -0.237 N 
ATOM     12  H   LIG    1       -0.736   4.655   1.940  0.00  0.00    +0.159 HD
ATOM     13  C   LIG    1       -0.555   3.927   0.001  0.00  0.00    +0.312 C 
ATOM     14  O   LIG    1        0.510   4.398  -0.395  0.00  0.00    -0.252 OA
ATOM     15  N   LIG    1       -1.509   3.284  -0.700  0.00  0.00    -0.235 N 
BRANCH  15  16
ATOM     16  C   LIG    1       -1.565   3.251  -2.163  0.00  0.00    +0.270 C 
BRANCH  16  17
ATOM     17  O   LIG    1       -0.957   2.110  -2.732  0.00  0.00    -0.377 OA
ATOM     18  H   LIG    1       -0.892   2.239  -3.681  0.00  0.00    +0.211 HD
ENDBRANCH  16  17
ENDBRANCH  15  16
ENDBRANCH   2   8
ENDBRANCH   1   6
BRANCH   1  19
ATOM     19  N   LIG    1        1.613  -0.379  -1.520  0.00  0.00    -0.284 N 
ATOM     20  H   LIG    1        1.589  -0.836  -2.420  0.00  0.00    +0.152 HD
ATOM     21  C   LIG    1        2.202   0.826  -1.439  0.00  0.00    +0.302 C 
ATOM     22  O   LIG    1        2.141   1.564  -0.455  0.00  0.00    -0.253 OA
ATOM     23  N   LIG    1        2.900   1.115  -2.554  0.00  0.00    -0.273 N 
ATOM     24  H   LIG    1        3.075   0.352  -3.192  0.00  0.00    +0.152 HD
BRANCH  23  25
ATOM     25  C   LIG    1        3.632   2.360  -2.866  0.00  0.00    +0.256 C 
ATOM     26  C   LIG    1        2.742   3.589  -2.907  0.00  0.00    +0.259 C 
ATOM     27  O   LIG    1        1.616   3.675  -3.393  0.00  0.00    -0.271 OA
ATOM     28  N   LIG    1        3.451   4.548  -2.294  0.00  0.00    -0.237 N 
ATOM     29  H   LIG    1        3.082   5.472  -2.121  0.00  0.00    +0.159 HD
ATOM     30  C   LIG    1        4.660   4.148  -1.847  0.00  0.00    +0.312 C 
ATOM     31  O   LIG    1        5.574   4.869  -1.447  0.00  0.00    -0.252 OA
ATOM     32  N   LIG    1        4.612   2.801  -1.899  0.00  0.00    -0.235 N 
BRANCH  32  33
ATOM     33  C   LIG    1        5.686   1.945  -1.385  0.00  0.00    +0.270 C 
BRANCH  33  34
ATOM     34  O   LIG    1        6.685   1.647  -2.340  0.00  0.00    -0.377 OA
ATOM     35  H   LIG    1        7.360   1.111  -1.917  0.00  0.00    +0.211 HD
ENDBRANCH  33  34
ENDBRANCH  32  33
ENDBRANCH  23  25
ENDBRANCH   1  19
TORSDOF 8
