REMARK  Name = DB14889
REMARK                            x       y       z     vdW  Elec       q    Type
REMARK                         _______ _______ _______ _____ _____    ______ ____
ROOT
ATOM      1  C   LIG    1        6.209   1.312   2.480  0.00  0.00    +0.220 A 
ATOM      2  N   LIG    1        5.287   2.054   1.810  0.00  0.00    -0.214 NA
ATOM      3  C   LIG    1        5.117   3.351   2.186  0.00  0.00    +0.080 A 
ATOM      4  C   LIG    1        4.081   4.181   1.485  0.00  0.00    +0.005 A 
ATOM      5  C   LIG    1        3.468   3.733   0.304  0.00  0.00    +0.010 A 
ATOM      6  C   LIG    1        2.501   4.502  -0.337  0.00  0.00    +0.001 A 
ATOM      7  C   LIG    1        2.122   5.724   0.204  0.00  0.00    +0.000 A 
ATOM      8  C   LIG    1        2.701   6.168   1.389  0.00  0.00    +0.005 A 
ATOM      9  C   LIG    1        3.682   5.414   2.055  0.00  0.00    -0.030 A 
ATOM     10  C   LIG    1        4.276   5.830   3.417  0.00  0.00    +0.057 C 
ATOM     11  C   LIG    1        5.764   5.409   3.518  0.00  0.00    +0.051 C 
ATOM     12  C   LIG    1        5.915   3.932   3.188  0.00  0.00    -0.002 A 
ATOM     13  C   LIG    1        6.841   3.089   3.813  0.00  0.00    +0.120 A 
ATOM     14  N   LIG    1        7.002   1.783   3.474  0.00  0.00    -0.222 NA
ENDROOT
BRANCH  10  15
ATOM     15  C   LIG    1        4.006   7.289   3.826  0.00  0.00    -0.004 A 
ATOM     16  C   LIG    1        2.874   7.614   4.591  0.00  0.00    +0.127 A 
ATOM     17  F   LIG    1        2.000   6.654   4.972  0.00  0.00    -0.205 F 
ATOM     18  C   LIG    1        2.629   8.936   4.963  0.00  0.00    +0.038 A 
ATOM     19  C   LIG    1        3.506   9.948   4.575  0.00  0.00    +0.003 A 
ATOM     20  C   LIG    1        4.630   9.638   3.813  0.00  0.00    +0.000 A 
ATOM     21  C   LIG    1        4.878   8.317   3.439  0.00  0.00    +0.007 A 
ENDBRANCH  10  15
BRANCH   1  22
ATOM     22  N   LIG    1        6.394  -0.035   2.128  0.00  0.00    -0.284 N 
ATOM     23  H   LIG    1        7.170  -0.486   2.591  0.00  0.00    +0.155 HD
BRANCH  22  28
ATOM     24  C   LIG    1        3.495  -1.549   0.331  0.00  0.00    -0.047 A 
ATOM     25  C   LIG    1        4.146  -2.569  -0.369  0.00  0.00    +0.004 A 
ATOM     26  C   LIG    1        5.521  -2.754  -0.220  0.00  0.00    +0.002 A 
ATOM     27  C   LIG    1        6.254  -1.913   0.618  0.00  0.00    +0.023 A 
ATOM     28  C   LIG    1        5.621  -0.877   1.311  0.00  0.00    +0.034 A 
ATOM     29  C   LIG    1        4.235  -0.722   1.181  0.00  0.00    +0.027 A 
BRANCH  24  30
ATOM     30  C   LIG    1        1.998  -1.323   0.174  0.00  0.00    +0.016 C 
BRANCH  30  31
ATOM     31  C   LIG    1        1.683   0.039  -0.473  0.00  0.00    -0.078 C 
BRANCH  31  32
ATOM     32  N   LIG    1        0.161   0.240  -0.540  0.00  0.00    +0.381 N 
ATOM     33  H   LIG    1       -0.244  -0.503  -1.091  0.00  0.00    -0.086 HD
ATOM     34  H   LIG    1       -0.217   0.177   0.395  0.00  0.00    -0.086 HD
BRANCH  32  35
ATOM     35  C   LIG    1       -0.254   1.589  -1.151  0.00  0.00    -0.054 C 
BRANCH  35  36
ATOM     36  C   LIG    1       -1.787   1.707  -1.196  0.00  0.00    +0.140 C 
BRANCH  36  38
ATOM     37  C   LIG    1       -3.768   0.641  -1.966  0.00  0.00    +0.193 C 
ATOM     38  O   LIG    1       -2.351   0.597  -1.885  0.00  0.00    -0.385 OA
ENDBRANCH  36  38
ENDBRANCH  35  36
ENDBRANCH  32  35
ENDBRANCH  31  32
ENDBRANCH  30  31
ENDBRANCH  24  30
ENDBRANCH  22  28
ENDBRANCH   1  22
TORSDOF 9
