REMARK  Name = DB14174
REMARK                            x       y       z     vdW  Elec       q    Type
REMARK                         _______ _______ _______ _____ _____    ______ ____
ROOT
ATOM      1  S   LIG    1        0.012   0.779   0.976  0.00  0.00    -0.027 S 
ENDROOT
BRANCH   1   2
ATOM      2  C   LIG    1       -0.411   2.466   1.409  0.00  0.00    +0.120 C 
ATOM      3  S   LIG    1        0.783   3.595   1.749  0.00  0.00    -0.027 S 
BRANCH   2   4
ATOM      4  N   LIG    1       -1.778   2.711   1.380  0.00  0.00    -0.318 N 
ATOM      5  C   LIG    1       -2.807   1.711   0.993  0.00  0.00    +0.106 C 
ATOM      6  C   LIG    1       -3.296   2.099  -0.422  0.00  0.00    +0.019 C 
ATOM      7  C   LIG    1       -3.837   3.541  -0.471  0.00  0.00    +0.003 C 
ATOM      8  C   LIG    1       -2.843   4.533   0.163  0.00  0.00    +0.019 C 
ATOM      9  C   LIG    1       -2.357   4.069   1.557  0.00  0.00    +0.106 C 
ENDBRANCH   2   4
ENDBRANCH   1   2
BRANCH   1  10
ATOM     10  S   LIG    1        2.047   0.454   1.163  0.00  0.00    -0.027 S 
BRANCH  10  11
ATOM     11  C   LIG    1        2.470  -0.011   2.841  0.00  0.00    +0.120 C 
ATOM     12  S   LIG    1        1.278  -0.275   3.991  0.00  0.00    -0.027 S 
BRANCH  11  13
ATOM     13  N   LIG    1        3.837  -0.160   3.037  0.00  0.00    -0.318 N 
ATOM     14  C   LIG    1        4.417  -0.686   4.301  0.00  0.00    +0.106 C 
ATOM     15  C   LIG    1        4.902  -2.125   4.007  0.00  0.00    +0.019 C 
ATOM     16  C   LIG    1        5.898  -2.178   2.832  0.00  0.00    +0.003 C 
ATOM     17  C   LIG    1        5.357  -1.416   1.608  0.00  0.00    +0.019 C 
ATOM     18  C   LIG    1        4.867   0.003   1.977  0.00  0.00    +0.106 C 
ENDBRANCH  11  13
ENDBRANCH  10  11
ENDBRANCH   1  10
TORSDOF 5
