REMARK  Name = DB14203
REMARK                            x       y       z     vdW  Elec       q    Type
REMARK                         _______ _______ _______ _____ _____    ______ ____
ROOT
ATOM      1  C   LIG    1        0.129   0.290   0.198  0.00  0.00    +0.030 A 
ATOM      2  C   LIG    1       -0.602   1.393  -0.259  0.00  0.00    +0.028 A 
ATOM      3  C   LIG    1       -1.988   1.332  -0.440  0.00  0.00    -0.022 A 
ATOM      4  C   LIG    1       -2.701   0.149  -0.162  0.00  0.00    +0.089 A 
ATOM      5  C   LIG    1       -1.955  -0.954   0.302  0.00  0.00    +0.031 A 
ATOM      6  C   LIG    1       -2.705   2.581  -0.945  0.00  0.00    +0.046 C 
ATOM      7  C   LIG    1       -0.576  -0.886   0.479  0.00  0.00    +0.025 A 
ENDROOT
BRANCH   4   8
ATOM      8  N   LIG    1       -4.098   0.133  -0.360  0.00  0.00    -0.147 NA
ATOM      9  N   LIG    1       -4.702  -0.950  -0.077  0.00  0.00    -0.122 NA
BRANCH   9  10
ATOM     10  C   LIG    1       -6.045  -0.904  -0.289  0.00  0.00    +0.216 A 
ATOM     11  S   LIG    1       -6.813  -2.364  -0.832  0.00  0.00    -0.022 S 
ATOM     12  C   LIG    1       -8.342  -1.518  -0.850  0.00  0.00    +0.180 A 
ATOM     13  C   LIG    1       -8.114  -0.204  -0.441  0.00  0.00    +0.153 A 
ATOM     14  N   LIG    1       -6.869   0.113  -0.141  0.00  0.00    -0.226 NA
BRANCH  12  15
ATOM     15  N   LIG    1       -9.578  -2.129  -1.230  0.00  0.00    +0.014 N 
ATOM     16  O   LIG    1      -10.583  -1.426  -1.207  0.00  0.00    -0.129 OA
BRANCH  15  17
ATOM     17  O   LIG    1       -9.567  -3.312  -1.557  0.00  0.00    -0.396 OA
ATOM     18  H   LIG    1       -8.762  -3.792  -1.552  0.00  0.00    +0.329 HD
ENDBRANCH  15  17
ENDBRANCH  12  15
ENDBRANCH   9  10
ENDBRANCH   4   8
BRANCH   1  19
ATOM     19  N   LIG    1        1.537   0.389   0.364  0.00  0.00    -0.328 N 
BRANCH  19  21
ATOM     20  C   LIG    1        2.392  -0.167  -1.942  0.00  0.00    +0.024 C 
ATOM     21  C   LIG    1        2.283   0.866  -0.807  0.00  0.00    +0.102 C 
ENDBRANCH  19  21
BRANCH  19  22
ATOM     22  C   LIG    1        2.240  -0.582   1.214  0.00  0.00    +0.133 C 
BRANCH  22  23
ATOM     23  C   LIG    1        1.825  -0.597   2.700  0.00  0.00    +0.174 C 
BRANCH  23  24
ATOM     24  O   LIG    1        2.751  -1.251   3.541  0.00  0.00    -0.393 OA
ATOM     25  H   LIG    1        2.475  -1.130   4.452  0.00  0.00    +0.209 HD
ENDBRANCH  23  24
ENDBRANCH  22  23
ENDBRANCH  19  22
ENDBRANCH   1  19
TORSDOF 9
