REMARK  Name = DB14146
REMARK                            x       y       z     vdW  Elec       q    Type
REMARK                         _______ _______ _______ _____ _____    ______ ____
ROOT
ATOM      1  C   LIG    1       10.200 -10.613  -1.496  0.00  0.00    -0.096 C 
ATOM      2  N   LIG    1        8.965  -9.808  -1.961  0.00  0.00    +0.382 N 
ATOM      3  H   LIG    1        8.274 -10.510  -2.186  0.00  0.00    -0.082 HD
ATOM      4  C   LIG    1        8.341  -8.941  -0.811  0.00  0.00    -0.031 C 
ATOM      5  C   LIG    1        9.120  -7.582  -0.598  0.00  0.00    +0.068 C 
ATOM      6  C   LIG    1        9.103  -6.841  -1.979  0.00  0.00    +0.064 C 
ATOM      7  C   LIG    1        9.433  -5.321  -2.037  0.00  0.00    +0.215 C 
ATOM      8  O   LIG    1        8.684  -4.832  -3.178  0.00  0.00    -0.481 OA
ATOM      9  C   LIG    1        7.566  -5.632  -3.276  0.00  0.00    +0.167 A 
ATOM     10  C   LIG    1        6.402  -5.395  -4.003  0.00  0.00    +0.162 A 
ATOM     11  C   LIG    1        5.343  -6.314  -3.843  0.00  0.00    +0.050 A 
ATOM     12  C   LIG    1        5.459  -7.401  -2.959  0.00  0.00    +0.007 A 
ATOM     13  C   LIG    1        6.642  -7.624  -2.239  0.00  0.00    -0.041 A 
ATOM     14  C   LIG    1        9.020  -4.494  -0.762  0.00  0.00    +0.160 C 
ATOM     15  C   LIG    1        9.235  -5.266   0.553  0.00  0.00    +0.038 C 
ATOM     16  C   LIG    1        7.689  -6.737  -2.474  0.00  0.00    +0.013 A 
ATOM     17  C   LIG    1        9.916  -7.681  -3.019  0.00  0.00    -0.001 C 
ATOM     18  C   LIG    1        8.572  -6.666   0.533  0.00  0.00    +0.037 C 
ATOM     19  C   LIG    1        6.835  -8.705  -1.173  0.00  0.00    +0.023 C 
ATOM     20  C   LIG    1        9.287  -9.069  -3.291  0.00  0.00    -0.078 C 
ENDROOT
BRANCH   5  21
ATOM     21  O   LIG    1       10.481  -7.791  -0.238  0.00  0.00    -0.389 OA
ATOM     22  H   LIG    1       10.508  -8.207   0.626  0.00  0.00    +0.210 HD
ENDBRANCH   5  21
BRANCH  10  23
ATOM     23  O   LIG    1        6.377  -4.262  -4.790  0.00  0.00    -0.491 OA
ATOM     24  C   LIG    1        5.187  -3.961  -5.509  0.00  0.00    +0.277 C 
ENDBRANCH  10  23
BRANCH  14  25
ATOM     25  O   LIG    1        7.632  -4.153  -0.814  0.00  0.00    -0.371 OA
BRANCH  25  26
ATOM     26  C   LIG    1        7.343  -2.825  -1.240  0.00  0.00    +0.188 C 
BRANCH  26  27
ATOM     27  C   LIG    1        5.827  -2.644  -1.384  0.00  0.00    +0.188 C 
BRANCH  27  28
ATOM     28  O   LIG    1        5.196  -2.882  -0.129  0.00  0.00    -0.375 OA
BRANCH  28  29
ATOM     29  C   LIG    1        3.776  -2.755  -0.129  0.00  0.00    +0.188 C 
BRANCH  29  30
ATOM     30  C   LIG    1        3.316  -1.288  -0.188  0.00  0.00    +0.188 C 
BRANCH  30  31
ATOM     31  O   LIG    1        1.900  -1.232  -0.064  0.00  0.00    -0.375 OA
BRANCH  31  32
ATOM     32  C   LIG    1        1.387   0.094  -0.055  0.00  0.00    +0.188 C 
BRANCH  32  33
ATOM     33  C   LIG    1       -0.144   0.053   0.013  0.00  0.00    +0.188 C 
BRANCH  33  34
ATOM     34  O   LIG    1       -0.629   1.388   0.052  0.00  0.00    -0.375 OA
BRANCH  34  35
ATOM     35  C   LIG    1       -2.047   1.489   0.069  0.00  0.00    +0.188 C 
BRANCH  35  36
ATOM     36  C   LIG    1       -2.433   2.971   0.141  0.00  0.00    +0.188 C 
BRANCH  36  37
ATOM     37  O   LIG    1       -3.848   3.093   0.112  0.00  0.00    -0.375 OA
BRANCH  37  38
ATOM     38  C   LIG    1       -4.305   4.436   0.208  0.00  0.00    +0.188 C 
BRANCH  38  39
ATOM     39  C   LIG    1       -5.835   4.472   0.110  0.00  0.00    +0.188 C 
BRANCH  39  40
ATOM     40  O   LIG    1       -6.241   3.959  -1.152  0.00  0.00    -0.375 OA
BRANCH  40  41
ATOM     41  C   LIG    1       -7.649   3.973  -1.349  0.00  0.00    +0.188 C 
BRANCH  41  42
ATOM     42  C   LIG    1       -7.977   3.413  -2.739  0.00  0.00    +0.187 C 
BRANCH  42  43
ATOM     43  O   LIG    1       -7.375   4.229  -3.736  0.00  0.00    -0.381 OA
ATOM     44  C   LIG    1       -7.624   3.780  -5.059  0.00  0.00    +0.194 C 
ENDBRANCH  42  43
ENDBRANCH  41  42
ENDBRANCH  40  41
ENDBRANCH  39  40
ENDBRANCH  38  39
ENDBRANCH  37  38
ENDBRANCH  36  37
ENDBRANCH  35  36
ENDBRANCH  34  35
ENDBRANCH  33  34
ENDBRANCH  32  33
ENDBRANCH  31  32
ENDBRANCH  30  31
ENDBRANCH  29  30
ENDBRANCH  28  29
ENDBRANCH  27  28
ENDBRANCH  26  27
ENDBRANCH  25  26
ENDBRANCH  14  25
TORSDOF 21
