REMARK  Name = DB14945
REMARK                            x       y       z     vdW  Elec       q    Type
REMARK                         _______ _______ _______ _____ _____    ______ ____
ROOT
ATOM      1  C   LIG    1       -0.667   1.083   0.008  0.00  0.00    +0.162 A 
ATOM      2  C   LIG    1       -2.070   1.081  -0.028  0.00  0.00    +0.051 A 
ATOM      3  C   LIG    1       -2.823  -0.102  -0.044  0.00  0.00    -0.054 A 
ATOM      4  C   LIG    1       -4.367  -0.038  -0.019  0.00  0.00    -0.035 C 
ATOM      5  C   LIG    1       -5.015   1.065  -0.902  0.00  0.00    +0.021 C 
ATOM      6  C   LIG    1       -6.557   1.029  -0.902  0.00  0.00    +0.115 C 
ATOM      7  C   LIG    1       -7.106  -0.372  -1.275  0.00  0.00    +0.001 C 
ATOM      8  C   LIG    1       -6.528  -1.424  -0.300  0.00  0.00    -0.072 C 
ATOM      9  N   LIG    1       -4.985  -1.416  -0.391  0.00  0.00    +0.385 N 
ATOM     10  H   LIG    1       -4.763  -1.584  -1.363  0.00  0.00    -0.081 HD
ATOM     11  C   LIG    1       -4.330  -2.550   0.418  0.00  0.00    -0.073 C 
ATOM     12  C   LIG    1       -2.867  -2.662  -0.029  0.00  0.00    +0.017 C 
ATOM     13  C   LIG    1       -2.125  -1.329   0.003  0.00  0.00    -0.044 A 
ATOM     14  C   LIG    1       -0.729  -1.326   0.048  0.00  0.00    +0.053 A 
ATOM     15  C   LIG    1        0.012  -0.137   0.042  0.00  0.00    +0.162 A 
ENDROOT
BRANCH   1  17
ATOM     16  C   LIG    1       -0.533   3.507  -0.017  0.00  0.00    +0.277 C 
ATOM     17  O   LIG    1        0.102   2.233   0.015  0.00  0.00    -0.491 OA
ENDBRANCH   1  17
BRANCH   6  18
ATOM     18  O   LIG    1       -7.078   2.069  -1.707  0.00  0.00    -0.392 OA
ATOM     19  H   LIG    1       -6.749   1.959  -2.602  0.00  0.00    +0.210 HD
ENDBRANCH   6  18
BRANCH   7  20
ATOM     20  C   LIG    1       -8.658  -0.408  -1.354  0.00  0.00    +0.007 C 
BRANCH  20  21
ATOM     21  C   LIG    1       -9.303  -1.750  -1.788  0.00  0.00    -0.017 C 
ATOM     22  C   LIG    1      -10.840  -1.648  -1.773  0.00  0.00    +0.007 C 
ATOM     23  C   LIG    1       -8.807  -2.241  -3.163  0.00  0.00    +0.007 C 
ENDBRANCH  20  21
ENDBRANCH   7  20
BRANCH  15  24
ATOM     24  O   LIG    1        1.395  -0.089   0.069  0.00  0.00    -0.488 OA
BRANCH  24  25
ATOM     25  C   LIG    1        2.146  -1.300   0.060  0.00  0.00    +0.232 C 
BRANCH  25  26
ATOM     26  C   LIG    1        3.640  -0.949   0.038  0.00  0.00    +0.074 C 
BRANCH  26  27
ATOM     27  C   LIG    1        4.546  -2.188   0.019  0.00  0.00    +0.216 C 
ATOM     28  F   LIG    1        5.843  -1.886  -0.001  0.00  0.00    -0.249 F 
ENDBRANCH  26  27
ENDBRANCH  25  26
ENDBRANCH  24  25
ENDBRANCH  15  24
TORSDOF 8
