REMARK  Name = DB14777
REMARK                            x       y       z     vdW  Elec       q    Type
REMARK                         _______ _______ _______ _____ _____    ______ ____
ROOT
ATOM      1  CA  ILE A 14        1.608  -0.016   0.450  0.00  0.00    +0.162 C 
ATOM      2  C   ILE A 14        1.582  -0.662  -0.951  0.00  0.00    +0.234 C 
ATOM      3  O   ILE A 14        1.221   0.002  -1.923  0.00  0.00    -0.274 OA
ATOM      4  N   UNK A  1        1.950  -1.952  -1.007  0.00  0.00    -0.303 N 
ATOM      5  H   UNK A  1        2.233  -2.427  -0.161  0.00  0.00    +0.150 HD
ATOM      6  C   UNK A  1        1.976  -2.751  -2.227  0.00  0.00    +0.157 C 
ATOM      7  C   UNK A  1        1.398  -4.142  -1.934  0.00  0.00    +0.234 C 
ATOM      8  O   UNK A  1        1.887  -4.837  -1.044  0.00  0.00    -0.274 OA
ATOM      9  N   UNK A  2        0.383  -4.516  -2.727  0.00  0.00    -0.302 N 
ATOM     10  H   UNK A  2        0.066  -3.877  -3.441  0.00  0.00    +0.150 HD
ATOM     11  C   UNK A  2       -0.252  -5.835  -2.750  0.00  0.00    +0.159 C 
ATOM     12  C   UNK A  2        0.475  -6.766  -3.750  0.00  0.00    +0.234 C 
ATOM     13  O   UNK A  2        1.542  -6.410  -4.254  0.00  0.00    -0.274 OA
ATOM     14  N   UNK A  3       -0.094  -7.962  -3.990  0.00  0.00    -0.303 N 
ATOM     15  H   UNK A  3       -0.974  -8.176  -3.542  0.00  0.00    +0.150 HD
ATOM     16  C   UNK A  3        0.456  -9.034  -4.828  0.00  0.00    +0.157 C 
ATOM     17  C   UNK A  3        0.675  -8.581  -6.292  0.00  0.00    +0.234 C 
ATOM     18  O   UNK A  3       -0.308  -8.317  -6.985  0.00  0.00    -0.274 OA
ATOM     19  N   UNK A  4        1.948  -8.521  -6.727  0.00  0.00    -0.303 N 
ATOM     20  H   UNK A  4        2.682  -8.737  -6.068  0.00  0.00    +0.150 HD
ATOM     21  C   UNK A  4        2.422  -8.214  -8.079  0.00  0.00    +0.157 C 
ATOM     22  C   UNK A  4        2.033  -6.772  -8.489  0.00  0.00    +0.234 C 
ATOM     23  O   UNK A  4        2.499  -5.834  -7.842  0.00  0.00    -0.274 OA
ATOM     24  N   TRP A  5        1.230  -6.619  -9.559  0.00  0.00    -0.302 N 
ATOM     25  H   TRP A  5        0.880  -7.442 -10.028  0.00  0.00    +0.150 HD
ATOM     26  CA  TRP A  5        0.824  -5.340 -10.155  0.00  0.00    +0.163 C 
ATOM     27  C   TRP A  5       -0.050  -4.460  -9.244  0.00  0.00    +0.234 C 
ATOM     28  O   TRP A  5       -0.002  -3.238  -9.382  0.00  0.00    -0.274 OA
ATOM     29  N   UNK A  6       -0.830  -5.089  -8.346  0.00  0.00    -0.303 N 
ATOM     30  H   UNK A  6       -0.801  -6.097  -8.291  0.00  0.00    +0.150 HD
ATOM     31  C   UNK A  6       -1.742  -4.425  -7.415  0.00  0.00    +0.157 C 
ATOM     32  C   UNK A  6       -0.954  -3.635  -6.352  0.00  0.00    +0.234 C 
ATOM     33  O   UNK A  6        0.007  -4.163  -5.794  0.00  0.00    -0.274 OA
ATOM     34  N   UNK A  7       -1.378  -2.387  -6.103  0.00  0.00    -0.303 N 
ATOM     35  H   UNK A  7       -2.181  -2.024  -6.596  0.00  0.00    +0.150 HD
ATOM     36  C   UNK A  7       -0.740  -1.460  -5.165  0.00  0.00    +0.157 C 
ATOM     37  C   UNK A  7       -1.691  -0.297  -4.838  0.00  0.00    +0.234 C 
ATOM     38  O   UNK A  7       -2.672  -0.082  -5.553  0.00  0.00    -0.274 OA
ATOM     39  N   ALA A  8       -1.359   0.443  -3.765  0.00  0.00    -0.303 N 
ATOM     40  H   ALA A  8       -0.532   0.207  -3.234  0.00  0.00    +0.149 HD
ATOM     41  CA  ALA A  8       -2.073   1.641  -3.320  0.00  0.00    +0.156 C 
ATOM     42  CB  ALA A  8       -1.584   2.013  -1.913  0.00  0.00    +0.038 C 
ATOM     43  C   ALA A  8       -1.906   2.828  -4.285  0.00  0.00    +0.234 C 
ATOM     44  O   ALA A  8       -0.840   2.995  -4.878  0.00  0.00    -0.274 OA
ATOM     45  N   SER A  9       -2.976   3.628  -4.401  0.00  0.00    -0.301 N 
ATOM     46  H   SER A  9       -3.803   3.423  -3.859  0.00  0.00    +0.150 HD
ATOM     47  CA  SER A  9       -3.067   4.830  -5.236  0.00  0.00    +0.185 C 
ATOM     48  C   SER A  9       -2.419   6.067  -4.559  0.00  0.00    +0.239 C 
ATOM     49  O   SER A  9       -2.269   6.036  -3.338  0.00  0.00    -0.273 OA
ATOM     50  N   PRO A 10       -2.123   7.142  -5.340  0.00  0.00    -0.288 N 
ATOM     51  CD  PRO A 10       -2.130   7.129  -6.809  0.00  0.00    +0.109 C 
ATOM     52  CG  PRO A 10       -2.300   8.581  -7.214  0.00  0.00    +0.021 C 
ATOM     53  CB  PRO A 10       -1.510   9.297  -6.142  0.00  0.00    +0.033 C 
ATOM     54  CA  PRO A 10       -1.797   8.508  -4.842  0.00  0.00    +0.162 C 
ATOM     55  C   PRO A 10       -0.617   8.606  -3.835  0.00  0.00    +0.237 C 
ATOM     56  O   PRO A 10        0.531   8.665  -4.277  0.00  0.00    -0.274 OA
ATOM     57  N   PRO A 11       -0.887   8.550  -2.506  0.00  0.00    -0.288 N 
ATOM     58  CD  PRO A 11       -2.182   8.855  -1.885  0.00  0.00    +0.109 C 
ATOM     59  CG  PRO A 11       -1.849   9.253  -0.453  0.00  0.00    +0.021 C 
ATOM     60  CB  PRO A 11       -0.609   8.434  -0.150  0.00  0.00    +0.033 C 
ATOM     61  CA  PRO A 11        0.167   8.417  -1.476  0.00  0.00    +0.162 C 
ATOM     62  C   PRO A 11        1.094   7.186  -1.559  0.00  0.00    +0.234 C 
ATOM     63  O   PRO A 11        2.189   7.253  -1.001  0.00  0.00    -0.274 OA
ATOM     64  N   THR A 12        0.648   6.109  -2.238  0.00  0.00    -0.300 N 
ATOM     65  H   THR A 12       -0.272   6.159  -2.650  0.00  0.00    +0.150 HD
ATOM     66  CA  THR A 12        1.350   4.835  -2.463  0.00  0.00    +0.187 C 
ATOM     67  C   THR A 12        1.847   4.187  -1.142  0.00  0.00    +0.236 C 
ATOM     68  O   THR A 12        1.025   4.033  -0.239  0.00  0.00    -0.274 OA
ATOM     69  N   TRP A 13        3.133   3.786  -1.065  0.00  0.00    -0.302 N 
ATOM     70  H   TRP A 13        3.716   3.940  -1.874  0.00  0.00    +0.150 HD
ATOM     71  CA  TRP A 13        3.824   3.115   0.044  0.00  0.00    +0.163 C 
ATOM     72  C   TRP A 13        3.465   1.623   0.163  0.00  0.00    +0.234 C 
ATOM     73  O   TRP A 13        4.353   0.781   0.026  0.00  0.00    -0.274 OA
ATOM     74  N   ILE A 14        2.176   1.330   0.397  0.00  0.00    -0.302 N 
ATOM     75  H   ILE A 14        1.516   2.088   0.496  0.00  0.00    +0.150 HD
ENDROOT
BRANCH   1  76
ATOM     76  CB  ILE A 14        0.168   0.031   1.050  0.00  0.00    +0.015 C 
ATOM     77  CG2 ILE A 14       -0.684  -1.244   0.837  0.00  0.00    +0.010 C 
BRANCH  76  79
ATOM     78  CD1 ILE A 14       -1.126   0.806   3.154  0.00  0.00    +0.004 C 
ATOM     79  CG1 ILE A 14        0.225   0.388   2.554  0.00  0.00    +0.002 C 
ENDBRANCH  76  79
ENDBRANCH   1  76
BRANCH  66  80
ATOM     80  CB  THR A 12        2.459   4.929  -3.561  0.00  0.00    +0.141 C 
ATOM     81  CG2 THR A 12        1.926   5.404  -4.921  0.00  0.00    +0.040 C 
BRANCH  80  82
ATOM     82  OG1 THR A 12        3.557   5.753  -3.208  0.00  0.00    -0.390 OA
ATOM     83  HG1 THR A 12        3.900   5.475  -2.356  0.00  0.00    +0.210 HD
ENDBRANCH  80  82
ENDBRANCH  66  80
BRANCH   6  84
ATOM     84  C   UNK A  1        3.391  -2.818  -2.844  0.00  0.00    +0.012 C 
BRANCH  84  85
ATOM     85  C   UNK A  1        3.487  -3.706  -4.109  0.00  0.00    -0.084 C 
BRANCH  85  86
ATOM     86  N   UNK A  1        4.539  -3.173  -5.088  0.00  0.00    +0.378 N 
ATOM     87  H   UNK A  1        4.302  -2.237  -5.382  0.00  0.00    -0.090 HD
ATOM     88  H   UNK A  1        5.447  -3.155  -4.645  0.00  0.00    -0.090 HD
ATOM     89  H   UNK A  1        4.587  -3.769  -5.902  0.00  0.00    -0.090 HD
ENDBRANCH  85  86
ENDBRANCH  84  85
ENDBRANCH   6  84
BRANCH  11  90
ATOM     90  C   UNK A  2       -1.771  -5.700  -3.031  0.00  0.00    +0.030 C 
BRANCH  90  91
ATOM     91  C   UNK A  2       -2.636  -5.322  -1.808  0.00  0.00    -0.017 C 
BRANCH  91  92
ATOM     92  C   UNK A  2       -2.303  -3.968  -1.153  0.00  0.00    -0.086 C 
BRANCH  92  93
ATOM     93  N   UNK A  2       -3.284  -3.689  -0.009  0.00  0.00    +0.378 N 
ATOM     94  H   UNK A  2       -4.231  -3.652  -0.359  0.00  0.00    -0.090 HD
ATOM     95  H   UNK A  2       -3.223  -4.417   0.688  0.00  0.00    -0.090 HD
ATOM     96  H   UNK A  2       -3.065  -2.805   0.429  0.00  0.00    -0.090 HD
ENDBRANCH  92  93
ENDBRANCH  91  92
ENDBRANCH  90  91
ENDBRANCH  11  90
BRANCH  16  97
ATOM     97  C   UNK A  3        1.709  -9.707  -4.189  0.00  0.00    +0.012 C 
BRANCH  97  98
ATOM     98  C   UNK A  3        1.529 -10.274  -2.762  0.00  0.00    -0.084 C 
BRANCH  98  99
ATOM     99  N   UNK A  3        0.466 -11.380  -2.710  0.00  0.00    +0.378 N 
ATOM    100  H   UNK A  3       -0.432 -11.018  -2.996  0.00  0.00    -0.090 HD
ATOM    101  H   UNK A  3        0.723 -12.138  -3.326  0.00  0.00    -0.090 HD
ATOM    102  H   UNK A  3        0.387 -11.739  -1.769  0.00  0.00    -0.090 HD
ENDBRANCH  98  99
ENDBRANCH  97  98
ENDBRANCH  16  97
BRANCH  21 103
ATOM    103  C   UNK A  4        2.045  -9.334  -9.098  0.00  0.00    +0.012 C 
BRANCH 103 104
ATOM    104  C   UNK A  4        3.108  -9.698 -10.167  0.00  0.00    -0.084 C 
BRANCH 104 105
ATOM    105  N   UNK A  4        3.631  -8.493 -10.959  0.00  0.00    +0.378 N 
ATOM    106  H   UNK A  4        2.872  -8.042 -11.451  0.00  0.00    -0.090 HD
ATOM    107  H   UNK A  4        4.062  -7.823 -10.338  0.00  0.00    -0.090 HD
ATOM    108  H   UNK A  4        4.317  -8.796 -11.636  0.00  0.00    -0.090 HD
ENDBRANCH 104 105
ENDBRANCH 103 104
ENDBRANCH  21 103
BRANCH  26 109
ATOM    109  CB  TRP A  5        0.083  -5.598 -11.484  0.00  0.00    +0.069 C 
BRANCH 109 110
ATOM    110  CG  TRP A  5        0.788  -6.450 -12.497  0.00  0.00    -0.020 A 
ATOM    111  CD2 TRP A  5        0.651  -7.886 -12.736  0.00  0.00    +0.003 A 
ATOM    112  CE3 TRP A  5       -0.142  -8.916 -12.178  0.00  0.00    +0.010 A 
ATOM    113  CZ3 TRP A  5       -0.041 -10.246 -12.634  0.00  0.00    +0.001 A 
ATOM    114  CH2 TRP A  5        0.858 -10.579 -13.667  0.00  0.00    +0.002 A 
ATOM    115  CZ2 TRP A  5        1.661  -9.580 -14.246  0.00  0.00    +0.026 A 
ATOM    116  CE2 TRP A  5        1.553  -8.258 -13.780  0.00  0.00    +0.047 A 
ATOM    117  NE1 TRP A  5        2.190  -7.081 -14.116  0.00  0.00    -0.360 N 
ATOM    118  HE1 TRP A  5        2.895  -6.975 -14.832  0.00  0.00    +0.165 HD
ATOM    119  CD1 TRP A  5        1.744  -6.022 -13.352  0.00  0.00    +0.087 A 
ENDBRANCH 109 110
ENDBRANCH  26 109
BRANCH  31 120
ATOM    120  C   UNK A  6       -2.695  -5.460  -6.767  0.00  0.00    +0.012 C 
BRANCH 120 121
ATOM    121  C   UNK A  6       -3.887  -4.890  -5.961  0.00  0.00    -0.084 C 
BRANCH 121 122
ATOM    122  N   UNK A  6       -4.885  -4.163  -6.872  0.00  0.00    +0.378 N 
ATOM    123  H   UNK A  6       -4.441  -3.380  -7.329  0.00  0.00    -0.090 HD
ATOM    124  H   UNK A  6       -5.234  -4.795  -7.580  0.00  0.00    -0.090 HD
ATOM    125  H   UNK A  6       -5.668  -3.823  -6.332  0.00  0.00    -0.090 HD
ENDBRANCH 121 122
ENDBRANCH 120 121
ENDBRANCH  31 120
BRANCH  36 126
ATOM    126  C   UNK A  7        0.656  -0.958  -5.647  0.00  0.00    +0.012 C 
BRANCH 126 127
ATOM    127  C   UNK A  7        0.722   0.158  -6.723  0.00  0.00    -0.084 C 
BRANCH 127 128
ATOM    128  N   UNK A  7        0.041  -0.239  -8.040  0.00  0.00    +0.378 N 
ATOM    129  H   UNK A  7        0.468  -1.072  -8.421  0.00  0.00    -0.090 HD
ATOM    130  H   UNK A  7       -0.941  -0.417  -7.885  0.00  0.00    -0.090 HD
ATOM    131  H   UNK A  7        0.130   0.508  -8.715  0.00  0.00    -0.090 HD
ENDBRANCH 127 128
ENDBRANCH 126 127
ENDBRANCH  36 126
BRANCH  47 132
ATOM    132  CB  SER A  9       -4.568   5.043  -5.558  0.00  0.00    +0.187 C 
BRANCH 132 133
ATOM    133  OG  SER A  9       -5.312   5.472  -4.433  0.00  0.00    -0.393 OA
ATOM    134  H   SER A  9       -6.227   5.593  -4.698  0.00  0.00    +0.209 HD
ENDBRANCH 132 133
ENDBRANCH  47 132
BRANCH  71 135
ATOM    135  CB  TRP A 13        3.712   3.892   1.380  0.00  0.00    +0.069 C 
BRANCH 135 136
ATOM    136  CG  TRP A 13        4.417   3.286   2.560  0.00  0.00    -0.020 A 
ATOM    137  CD2 TRP A 13        5.851   3.222   2.831  0.00  0.00    +0.003 A 
ATOM    138  CE3 TRP A 13        7.009   3.692   2.168  0.00  0.00    +0.010 A 
ATOM    139  CZ3 TRP A 13        8.296   3.467   2.699  0.00  0.00    +0.001 A 
ATOM    140  CH2 TRP A 13        8.456   2.763   3.908  0.00  0.00    +0.002 A 
ATOM    141  CZ2 TRP A 13        7.326   2.279   4.591  0.00  0.00    +0.026 A 
ATOM    142  CE2 TRP A 13        6.048   2.507   4.052  0.00  0.00    +0.047 A 
ATOM    143  NE1 TRP A 13        4.775   2.165   4.458  0.00  0.00    -0.360 N 
ATOM    144  HE1 TRP A 13        4.543   1.643   5.291  0.00  0.00    +0.165 HD
ATOM    145  CD1 TRP A 13        3.819   2.616   3.572  0.00  0.00    +0.087 A 
ENDBRANCH 135 136
ENDBRANCH  71 135
TORSDOF 29
