REMARK  Name = DB14904
REMARK                            x       y       z     vdW  Elec       q    Type
REMARK                         _______ _______ _______ _____ _____    ______ ____
ROOT
ATOM      1  C   LIG    1        3.377   1.536   3.032  0.00  0.00    +0.061 A 
ATOM      2  C   LIG    1        2.332   1.724   3.953  0.00  0.00    +0.034 A 
ATOM      3  C   LIG    1        2.538   2.533   5.069  0.00  0.00    +0.111 A 
ATOM      4  N   LIG    1        3.712   3.156   5.319  0.00  0.00    -0.261 NA
ATOM      5  C   LIG    1        4.719   2.978   4.431  0.00  0.00    +0.134 A 
ATOM      6  C   LIG    1        4.611   2.192   3.273  0.00  0.00    +0.062 A 
ENDROOT
BRANCH   1   9
ATOM      7  N   LIG    1        1.954   0.767   1.229  0.00  0.00    -0.309 N 
ATOM      8  H   LIG    1        1.316   1.472   1.569  0.00  0.00    +0.149 HD
ATOM      9  C   LIG    1        3.151   0.641   1.830  0.00  0.00    +0.246 C 
ATOM     10  O   LIG    1        4.027  -0.134   1.439  0.00  0.00    -0.270 OA
BRANCH   7  11
ATOM     11  C   LIG    1        1.524   0.017   0.049  0.00  0.00    +0.138 C 
BRANCH  11  12
ATOM     12  C   LIG    1       -0.015  -0.054  -0.085  0.00  0.00    +0.157 C 
BRANCH  12  13
ATOM     13  O   LIG    1       -0.360  -0.978  -1.100  0.00  0.00    -0.388 OA
ATOM     14  H   LIG    1       -0.054  -0.631  -1.942  0.00  0.00    +0.210 HD
ENDBRANCH  12  13
BRANCH  12  15
ATOM     15  C   LIG    1       -0.701   1.304  -0.367  0.00  0.00    +0.188 C 
BRANCH  15  16
ATOM     16  O   LIG    1       -0.207   1.923  -1.540  0.00  0.00    -0.392 OA
ATOM     17  H   LIG    1       -0.666   2.757  -1.663  0.00  0.00    +0.210 HD
ENDBRANCH  15  16
ENDBRANCH  12  15
ENDBRANCH  11  12
ENDBRANCH   7  11
ENDBRANCH   1   9
BRANCH   6  18
ATOM     18  N   LIG    1        5.706   2.062   2.395  0.00  0.00    -0.310 N 
ATOM     19  H   LIG    1        5.615   1.316   1.720  0.00  0.00    +0.152 HD
BRANCH  18  20
ATOM     20  C   LIG    1        6.926   2.755   2.352  0.00  0.00    +0.067 A 
ATOM     21  C   LIG    1        8.103   2.015   2.200  0.00  0.00    +0.027 A 
ATOM     22  C   LIG    1        9.335   2.660   2.099  0.00  0.00    +0.016 A 
ATOM     23  C   LIG    1        9.398   4.053   2.124  0.00  0.00    +0.016 A 
ATOM     24  I   LIG    1       11.245   5.021   1.968  0.00  0.00    -0.044 I 
ATOM     25  C   LIG    1        8.226   4.800   2.240  0.00  0.00    +0.054 A 
ATOM     26  C   LIG    1        6.991   4.158   2.341  0.00  0.00    +0.145 A 
ATOM     27  F   LIG    1        5.866   4.909   2.410  0.00  0.00    -0.204 F 
ENDBRANCH  18  20
ENDBRANCH   6  18
TORSDOF 8
