REMARK  Name = DB14520
REMARK                            x       y       z     vdW  Elec       q    Type
REMARK                         _______ _______ _______ _____ _____    ______ ____
ROOT
ATOM      1  C   LIG    1        1.620   0.185  -0.029  0.00  0.00    +0.182 C 
ENDROOT
BRANCH   1   2
ATOM      2  C   LIG    1        2.122   0.891   1.322  0.00  0.00    +0.338 C 
ATOM      3  O   LIG    1        1.773   0.360   2.408  0.00  0.00    -0.248 OA
BRANCH   2   4
ATOM      4  O   LIG    1        2.834   1.931   1.329  0.00  0.00    -0.479 OA
ATOM      5  H   LIG    1        3.093   2.326   0.520  0.00  0.00    +0.295 HD
ENDBRANCH   2   4
ENDBRANCH   1   2
BRANCH   1   6
ATOM      6  O   LIG    1        2.078   0.878  -1.182  0.00  0.00    -0.376 OA
ATOM      7  H   LIG    1        1.758   0.427  -1.978  0.00  0.00    +0.211 HD
ENDBRANCH   1   6
BRANCH   1   8
ATOM      8  C   LIG    1        0.026   0.093   0.006  0.00  0.00    +0.167 C 
BRANCH   8   9
ATOM      9  C   LIG    1       -0.813   1.415  -0.009  0.00  0.00    +0.308 C 
ATOM     10  O   LIG    1       -1.185   1.871  -1.119  0.00  0.00    -0.251 OA
BRANCH   9  11
ATOM     11  O   LIG    1       -1.166   1.906   1.090  0.00  0.00    -0.481 OA
ATOM     12  H   LIG    1       -1.833   1.487   1.598  0.00  0.00    +0.295 HD
ENDBRANCH   9  11
ENDBRANCH   8   9
ENDBRANCH   1   8
BRANCH   1  13
ATOM     13  C   LIG    1        2.111  -1.335  -0.024  0.00  0.00    +0.167 C 
BRANCH  13  14
ATOM     14  C   LIG    1        3.646  -1.638  -0.073  0.00  0.00    +0.308 C 
ATOM     15  O   LIG    1        4.252  -1.806   1.013  0.00  0.00    -0.251 OA
BRANCH  14  16
ATOM     16  O   LIG    1        4.185  -1.802  -1.195  0.00  0.00    -0.481 OA
ATOM     17  H   LIG    1        5.102  -1.985  -1.252  0.00  0.00    +0.295 HD
ENDBRANCH  14  16
ENDBRANCH  13  14
ENDBRANCH   1  13
TORSDOF 9
