REMARK  Name = DB14830
REMARK                            x       y       z     vdW  Elec       q    Type
REMARK                         _______ _______ _______ _____ _____    ______ ____
ROOT
ATOM      1  N   LIG    1        2.017   0.695  -1.222  0.00  0.00    -0.309 N 
ATOM      2  C   LIG    1        2.166   0.141  -2.490  0.00  0.00    +0.286 A 
ATOM      3  N   LIG    1        2.583   1.023  -3.379  0.00  0.00    -0.215 NA
ATOM      4  C   LIG    1        2.709   2.157  -2.719  0.00  0.00    +0.132 A 
ATOM      5  C   LIG    1        2.370   2.012  -1.387  0.00  0.00    +0.109 A 
ENDROOT
BRANCH   2   6
ATOM      6  N   LIG    1        1.896  -1.241  -2.808  0.00  0.00    +0.043 N 
ATOM      7  O   LIG    1        2.021  -1.583  -3.980  0.00  0.00    -0.127 OA
BRANCH   6   8
ATOM      8  O   LIG    1        1.563  -2.017  -1.919  0.00  0.00    -0.394 OA
ATOM      9  H   LIG    1        1.480  -1.711  -1.037  0.00  0.00    +0.329 HD
ENDBRANCH   6   8
ENDBRANCH   2   6
BRANCH   1  10
ATOM     10  C   LIG    1        1.566   0.101   0.038  0.00  0.00    +0.158 C 
BRANCH  10  11
ATOM     11  C   LIG    1        0.026  -0.037   0.096  0.00  0.00    +0.165 C 
BRANCH  11  12
ATOM     12  O   LIG    1       -0.586   1.240   0.046  0.00  0.00    -0.387 OA
ATOM     13  H   LIG    1       -0.342   1.729   0.835  0.00  0.00    +0.210 HD
ENDBRANCH  11  12
BRANCH  11  14
ATOM     14  C   LIG    1       -0.444  -0.771   1.364  0.00  0.00    +0.246 C 
ATOM     15  F   LIG    1       -1.768  -0.898   1.458  0.00  0.00    -0.246 F 
ENDBRANCH  11  14
ENDBRANCH  10  11
ENDBRANCH   1  10
TORSDOF 6
