REMARK  Name = DB14933
REMARK                            x       y       z     vdW  Elec       q    Type
REMARK                         _______ _______ _______ _____ _____    ______ ____
ROOT
ATOM      1  C1* LIG    1        1.406   0.267  -0.070  0.00  0.00    +0.221 C 
ATOM      2  C2* LIG    1        2.149  -0.036  -1.372  0.00  0.00    +0.189 C 
ATOM      3  C3* LIG    1        3.504   0.600  -1.046  0.00  0.00    +0.178 C 
ATOM      4  C4* LIG    1        3.135   1.848  -0.231  0.00  0.00    +0.177 C 
ATOM      5  O4* LIG    1        1.834   1.554   0.272  0.00  0.00    -0.351 OA
ENDROOT
BRANCH   1  10
ATOM      6  C   LIG    1       -2.305   1.164  -0.051  0.00  0.00    +0.083 C 
ATOM      7  C   LIG    1       -2.873  -0.108  -0.215  0.00  0.00    +0.016 C 
ATOM      8  C   LIG    1       -2.053  -1.232  -0.323  0.00  0.00    +0.017 C 
ATOM      9  C   LIG    1       -0.668  -1.075  -0.270  0.00  0.00    +0.081 C 
ATOM     10  N   LIG    1       -0.122   0.155  -0.117  0.00  0.00    -0.265 NA
ATOM     11  C   LIG    1       -0.903   1.261  -0.007  0.00  0.00    +0.094 C 
BRANCH   6  15
ATOM     12  N   LIG    1       -2.631   3.517   0.495  0.00  0.00    -0.329 N 
ATOM     13  H   LIG    1       -1.652   3.547   0.740  0.00  0.00    +0.145 HD
ATOM     14  H   LIG    1       -3.190   4.352   0.591  0.00  0.00    +0.145 HD
ATOM     15  C   LIG    1       -3.194   2.383   0.061  0.00  0.00    +0.220 C 
ATOM     16  O   LIG    1       -4.390   2.330  -0.220  0.00  0.00    -0.275 OA
ENDBRANCH   6  15
ENDBRANCH   1  10
BRANCH   2  17
ATOM     17  O2* LIG    1        2.177  -1.422  -1.663  0.00  0.00    -0.385 OA
ATOM     18  H2* LIG    1        2.526  -1.544  -2.550  0.00  0.00    +0.210 HD
ENDBRANCH   2  17
BRANCH   3  19
ATOM     19  O3* LIG    1        4.380  -0.253  -0.324  0.00  0.00    -0.386 OA
ATOM     20  H3* LIG    1        4.438  -1.094  -0.783  0.00  0.00    +0.210 HD
ENDBRANCH   3  19
BRANCH   4  21
ATOM     21  C5* LIG    1        3.049   3.143  -1.066  0.00  0.00    +0.190 C 
BRANCH  21  22
ATOM     22  O5* LIG    1        2.692   4.244  -0.255  0.00  0.00    -0.392 OA
ATOM     23  H5* LIG    1        2.692   5.037  -0.796  0.00  0.00    +0.210 HD
ENDBRANCH  21  22
ENDBRANCH   4  21
TORSDOF 6
