REMARK  Name = DB14896
REMARK                            x       y       z     vdW  Elec       q    Type
REMARK                         _______ _______ _______ _____ _____    ______ ____
ROOT
ATOM      1  C   LIG    1        0.773   0.754   1.009  0.00  0.00    +0.028 C 
ATOM      2  C   LIG    1        1.529   0.228  -0.231  0.00  0.00    +0.071 C 
ATOM      3  N   LIG    1        1.939  -1.175  -0.127  0.00  0.00    -0.309 N 
ATOM      4  H   LIG    1        1.739  -1.730  -0.947  0.00  0.00    +0.149 HD
ATOM      5  C   LIG    1        2.637  -1.786   0.847  0.00  0.00    +0.249 C 
ATOM      6  O   LIG    1        2.974  -1.266   1.911  0.00  0.00    -0.270 OA
ATOM      7  C   LIG    1        3.004  -3.135   0.508  0.00  0.00    +0.100 A 
ATOM      8  C   LIG    1        3.499  -4.103   1.396  0.00  0.00    +0.150 A 
ATOM      9  N   LIG    1        3.809  -5.260   0.843  0.00  0.00    -0.173 NA
ATOM     10  N   LIG    1        3.552  -5.089  -0.470  0.00  0.00    -0.221 N 
ATOM     11  C   LIG    1        3.759  -6.007  -1.466  0.00  0.00    +0.118 A 
ATOM     12  C   LIG    1        3.469  -5.624  -2.775  0.00  0.00    +0.063 A 
ATOM     13  C   LIG    1        2.967  -4.334  -3.009  0.00  0.00    +0.126 A 
ATOM     14  N   LIG    1        2.748  -3.449  -1.995  0.00  0.00    -0.212 NA
ATOM     15  N   LIG    1        2.700  -3.862  -4.308  0.00  0.00    -0.308 N 
ATOM     16  C   LIG    1        2.818  -4.646  -5.540  0.00  0.00    +0.107 C 
ATOM     17  C   LIG    1        2.691  -3.686  -6.716  0.00  0.00    +0.021 C 
ATOM     18  C   LIG    1        1.744  -2.631  -6.181  0.00  0.00    +0.029 C 
ATOM     19  C   LIG    1        2.058  -2.583  -4.676  0.00  0.00    +0.107 C 
ATOM     20  C   LIG    1        2.911  -1.373  -4.237  0.00  0.00    -0.003 A 
ATOM     21  C   LIG    1        4.227  -1.249  -4.710  0.00  0.00    +0.047 A 
ATOM     22  C   LIG    1        5.014  -0.164  -4.329  0.00  0.00    +0.142 A 
ATOM     23  C   LIG    1        4.465   0.788  -3.477  0.00  0.00    +0.149 A 
ATOM     24  N   LIG    1        3.200   0.700  -3.001  0.00  0.00    -0.257 NA
ATOM     25  F   LIG    1        6.283  -0.040  -4.779  0.00  0.00    -0.204 F 
ATOM     26  C   LIG    1        2.433  -0.365  -3.365  0.00  0.00    +0.046 A 
ATOM     27  C   LIG    1        1.016  -0.394  -2.769  0.00  0.00    +0.057 C 
ATOM     28  C   LIG    1        3.050  -3.812  -0.743  0.00  0.00    +0.170 A 
ATOM     29  C   LIG    1        0.723   0.510  -1.535  0.00  0.00    +0.028 C 
ENDROOT
TORSDOF 0
