REMARK  Name = DB14775
REMARK                            x       y       z     vdW  Elec       q    Type
REMARK                         _______ _______ _______ _____ _____    ______ ____
ROOT
ATOM      1  C   LIG    1        1.513   0.018   0.028  0.00  0.00    +0.073 A 
ATOM      2  C   LIG    1        2.218   0.007   1.231  0.00  0.00    +0.029 A 
ATOM      3  C   LIG    1        3.611  -0.007   1.201  0.00  0.00    +0.012 A 
ATOM      4  C   LIG    1        4.279  -0.009  -0.048  0.00  0.00    +0.004 A 
ATOM      5  C   LIG    1        5.691  -0.020  -0.160  0.00  0.00    +0.055 A 
ATOM      6  C   LIG    1        6.292  -0.020  -1.418  0.00  0.00    +0.118 A 
ATOM      7  C   LIG    1        5.516  -0.010  -2.574  0.00  0.00    +0.047 A 
ATOM      8  C   LIG    1        4.125   0.000  -2.496  0.00  0.00    +0.032 A 
ATOM      9  C   LIG    1        3.483   0.001  -1.234  0.00  0.00    +0.072 A 
ATOM     10  N   LIG    1        2.122   0.013  -1.187  0.00  0.00    -0.247 NA
ENDROOT
BRANCH   1  14
ATOM     11  C   LIG    1       -2.811   0.016  -0.012  0.00  0.00    +0.060 A 
ATOM     12  C   LIG    1       -2.067  -1.179  -0.009  0.00  0.00    +0.016 A 
ATOM     13  C   LIG    1       -0.673  -1.166   0.001  0.00  0.00    +0.012 A 
ATOM     14  C   LIG    1        0.032   0.039   0.001  0.00  0.00    +0.019 A 
ATOM     15  C   LIG    1       -0.691   1.241   0.006  0.00  0.00    +0.051 A 
ATOM     16 CL   LIG    1        0.117   2.773   0.023  0.00  0.00    -0.083 Cl
ATOM     17  C   LIG    1       -2.087   1.223  -0.003  0.00  0.00    +0.035 A 
BRANCH  11  18
ATOM     18  C   LIG    1       -4.327   0.003  -0.023  0.00  0.00    +0.337 C 
ATOM     19  O   LIG    1       -4.922  -1.101  -0.028  0.00  0.00    -0.245 OA
BRANCH  18  20
ATOM     20  O   LIG    1       -4.941   1.097  -0.026  0.00  0.00    -0.477 OA
ATOM     21  H   LIG    1       -5.057   1.566  -0.829  0.00  0.00    +0.295 HD
ENDBRANCH  18  20
ENDBRANCH  11  18
ENDBRANCH   1  14
BRANCH   6  22
ATOM     22  O   LIG    1        7.658  -0.029  -1.516  0.00  0.00    -0.507 OA
ATOM     23  H   LIG    1        8.094  -0.030  -0.661  0.00  0.00    +0.292 HD
ENDBRANCH   6  22
TORSDOF 4
