REMARK  Name = DB14020
REMARK                            x       y       z     vdW  Elec       q    Type
REMARK                         _______ _______ _______ _____ _____    ______ ____
ROOT
ATOM      1  C   LIG    1        1.501   0.059   0.223  0.00  0.00    +0.215 C 
ENDROOT
BRANCH   1   2
ATOM      2  C   LIG    1        2.021   1.497   0.113  0.00  0.00    -0.012 A 
ATOM      3  C   LIG    1        1.757   2.439   1.117  0.00  0.00    +0.006 A 
ATOM      4  C   LIG    1        2.247   3.737   1.004  0.00  0.00    +0.000 A 
ATOM      5  C   LIG    1        3.006   4.093  -0.109  0.00  0.00    +0.000 A 
ATOM      6  C   LIG    1        3.279   3.163  -1.109  0.00  0.00    +0.000 A 
ATOM      7  C   LIG    1        2.788   1.865  -0.997  0.00  0.00    +0.006 A 
ENDBRANCH   1   2
BRANCH   1   8
ATOM      8  C   LIG    1       -0.038  -0.054   0.031  0.00  0.00    +0.196 C 
ATOM      9  O   LIG    1       -0.721   0.970  -0.060  0.00  0.00    -0.289 OA
BRANCH   8  10
ATOM     10  C   LIG    1       -0.657  -1.426  -0.009  0.00  0.00    +0.020 A 
ATOM     11  C   LIG    1       -2.052  -1.550   0.081  0.00  0.00    +0.011 A 
ATOM     12  C   LIG    1       -2.656  -2.804   0.032  0.00  0.00    +0.001 A 
ATOM     13  C   LIG    1       -1.871  -3.943  -0.116  0.00  0.00    +0.000 A 
ATOM     14  C   LIG    1       -0.487  -3.838  -0.218  0.00  0.00    +0.001 A 
ATOM     15  C   LIG    1        0.118  -2.585  -0.169  0.00  0.00    +0.011 A 
ENDBRANCH   8  10
ENDBRANCH   1   8
BRANCH   1  16
ATOM     16  O   LIG    1        1.850  -0.545   1.458  0.00  0.00    -0.379 OA
ATOM     17  H   LIG    1        1.377  -0.095   2.161  0.00  0.00    +0.211 HD
ENDBRANCH   1  16
TORSDOF 4
