REMARK  Name = DB14105
REMARK                            x       y       z     vdW  Elec       q    Type
REMARK                         _______ _______ _______ _____ _____    ______ ____
ROOT
ATOM      1  C   LIG    1        2.289   0.243   0.997  0.00  0.00    +0.240 C 
ENDROOT
BRANCH   1   2
ATOM      2  C   LIG    1        2.647   1.375   1.998  0.00  0.00    +0.220 C 
BRANCH   2   3
ATOM      3  O   LIG    1        2.111   1.182   3.300  0.00  0.00    -0.283 OA
BRANCH   3   4
ATOM      4  P   LIG    1        2.755  -0.085   4.291  0.00  0.00    +0.475 P 
ATOM      5  O   LIG    1        2.736   0.397   5.726  0.00  0.00    -0.227 OA
BRANCH   4   6
ATOM      6  O   LIG    1        3.987  -0.671   3.636  0.00  0.00    -0.302 OA
ATOM      7  H   LIG    1        3.781  -0.914   2.720  0.00  0.00    +0.222 HD
ENDBRANCH   4   6
BRANCH   4   8
ATOM      8  O   LIG    1        1.451  -1.202   4.073  0.00  0.00    -0.284 OA
BRANCH   8   9
ATOM      9  C   LIG    1        0.190  -0.871   4.641  0.00  0.00    +0.206 C 
BRANCH   9  10
ATOM     10  C   LIG    1       -0.207  -1.907   5.710  0.00  0.00    +0.166 C 
BRANCH  10  11
ATOM     11  O   LIG    1       -1.541  -1.634   6.102  0.00  0.00    -0.387 OA
ATOM     12  H   LIG    1       -1.565  -0.765   6.511  0.00  0.00    +0.210 HD
ENDBRANCH  10  11
BRANCH  10  13
ATOM     13  C   LIG    1        0.709  -1.879   6.953  0.00  0.00    +0.189 C 
BRANCH  13  14
ATOM     14  O   LIG    1        0.429  -2.954   7.829  0.00  0.00    -0.392 OA
ATOM     15  H   LIG    1        1.036  -2.909   8.571  0.00  0.00    +0.210 HD
ENDBRANCH  13  14
ENDBRANCH  10  13
ENDBRANCH   9  10
ENDBRANCH   8   9
ENDBRANCH   4   8
ENDBRANCH   3   4
ENDBRANCH   2   3
ENDBRANCH   1   2
BRANCH   1  16
ATOM     16  O   LIG    1        2.686   0.584  -0.333  0.00  0.00    -0.456 OA
BRANCH  16  17
ATOM     17  C   LIG    1        3.981   0.548  -0.726  0.00  0.00    +0.308 C 
ATOM     18  O   LIG    1        4.944   0.211  -0.036  0.00  0.00    -0.251 OA
BRANCH  17  19
ATOM     19  C   LIG    1        4.161   0.984  -2.182  0.00  0.00    +0.120 C 
BRANCH  19  20
ATOM     20  C   LIG    1        3.898  -0.140  -3.210  0.00  0.00    +0.011 C 
BRANCH  20  21
ATOM     21  C   LIG    1        4.831  -1.371  -3.122  0.00  0.00    +0.001 C 
BRANCH  21  22
ATOM     22  C   LIG    1        6.343  -1.071  -3.202  0.00  0.00    +0.000 C 
BRANCH  22  23
ATOM     23  C   LIG    1        6.789  -0.375  -4.503  0.00  0.00    +0.000 C 
BRANCH  23  24
ATOM     24  C   LIG    1        8.309  -0.129  -4.552  0.00  0.00    +0.000 C 
BRANCH  24  25
ATOM     25  C   LIG    1        8.785   0.675  -5.778  0.00  0.00    -0.000 C 
BRANCH  25  26
ATOM     26  C   LIG    1        8.622  -0.059  -7.123  0.00  0.00    -0.000 C 
BRANCH  26  27
ATOM     27  C   LIG    1        9.211   0.731  -8.305  0.00  0.00    -0.000 C 
BRANCH  27  28
ATOM     28  C   LIG    1        9.086  -0.008  -9.649  0.00  0.00    -0.000 C 
BRANCH  28  29
ATOM     29  C   LIG    1        9.714   0.773 -10.817  0.00  0.00    -0.000 C 
BRANCH  29  30
ATOM     30  C   LIG    1        9.633   0.025 -12.160  0.00  0.00    -0.000 C 
BRANCH  30  31
ATOM     31  C   LIG    1       10.293   0.799 -13.315  0.00  0.00    -0.000 C 
BRANCH  31  32
ATOM     32  C   LIG    1       10.246   0.042 -14.653  0.00  0.00    -0.003 C 
ATOM     33  C   LIG    1       10.925   0.807 -15.797  0.00  0.00    +0.004 C 
ENDBRANCH  31  32
ENDBRANCH  30  31
ENDBRANCH  29  30
ENDBRANCH  28  29
ENDBRANCH  27  28
ENDBRANCH  26  27
ENDBRANCH  25  26
ENDBRANCH  24  25
ENDBRANCH  23  24
ENDBRANCH  22  23
ENDBRANCH  21  22
ENDBRANCH  20  21
ENDBRANCH  19  20
ENDBRANCH  17  19
ENDBRANCH  16  17
ENDBRANCH   1  16
BRANCH   1  34
ATOM     34  C   LIG    1        0.788  -0.104   0.953  0.00  0.00    +0.279 C 
BRANCH  34  35
ATOM     35  O   LIG    1       -0.022   1.064   0.869  0.00  0.00    -0.461 OA
BRANCH  35  37
ATOM     36  O   LIG    1       -1.986  -0.015   1.383  0.00  0.00    -0.251 OA
ATOM     37  C   LIG    1       -1.348   1.001   1.097  0.00  0.00    +0.307 C 
BRANCH  37  38
ATOM     38  C   LIG    1       -2.008   2.381   0.978  0.00  0.00    +0.120 C 
BRANCH  38  39
ATOM     39  C   LIG    1       -3.463   2.445   1.486  0.00  0.00    +0.011 C 
BRANCH  39  40
ATOM     40  C   LIG    1       -4.066   3.854   1.358  0.00  0.00    +0.001 C 
BRANCH  40  41
ATOM     41  C   LIG    1       -5.501   3.947   1.907  0.00  0.00    +0.000 C 
BRANCH  41  42
ATOM     42  C   LIG    1       -6.098   5.361   1.787  0.00  0.00    +0.000 C 
BRANCH  42  43
ATOM     43  C   LIG    1       -7.520   5.465   2.367  0.00  0.00    +0.000 C 
BRANCH  43  44
ATOM     44  C   LIG    1       -8.106   6.885   2.265  0.00  0.00    -0.000 C 
BRANCH  44  45
ATOM     45  C   LIG    1       -9.512   7.000   2.881  0.00  0.00    -0.000 C 
BRANCH  45  46
ATOM     46  C   LIG    1      -10.095   8.423   2.785  0.00  0.00    -0.000 C 
BRANCH  46  47
ATOM     47  C   LIG    1      -11.456   8.601   3.488  0.00  0.00    -0.000 C 
BRANCH  47  48
ATOM     48  C   LIG    1      -12.615   7.819   2.839  0.00  0.00    -0.000 C 
BRANCH  48  49
ATOM     49  C   LIG    1      -13.966   8.071   3.532  0.00  0.00    -0.000 C 
BRANCH  49  50
ATOM     50  C   LIG    1      -15.128   7.291   2.886  0.00  0.00    -0.000 C 
BRANCH  50  51
ATOM     51  C   LIG    1      -16.479   7.455   3.608  0.00  0.00    -0.003 C 
ATOM     52  C   LIG    1      -17.057   8.878   3.553  0.00  0.00    +0.004 C 
ENDBRANCH  50  51
ENDBRANCH  49  50
ENDBRANCH  48  49
ENDBRANCH  47  48
ENDBRANCH  46  47
ENDBRANCH  45  46
ENDBRANCH  44  45
ENDBRANCH  43  44
ENDBRANCH  42  43
ENDBRANCH  41  42
ENDBRANCH  40  41
ENDBRANCH  39  40
ENDBRANCH  38  39
ENDBRANCH  37  38
ENDBRANCH  35  37
ENDBRANCH  34  35
ENDBRANCH   1  34
TORSDOF 43
