REMARK  Name = DB14855
REMARK                            x       y       z     vdW  Elec       q    Type
REMARK                         _______ _______ _______ _____ _____    ______ ____
ROOT
ATOM      1  C   LIG    1        1.538   0.013   0.058  0.00  0.00    -0.023 A 
ATOM      2  C   LIG    1        2.217   0.082  -1.171  0.00  0.00    +0.118 A 
ATOM      3  C   LIG    1        3.613   0.051  -1.202  0.00  0.00    +0.045 A 
ATOM      4  C   LIG    1        4.339  -0.055  -0.016  0.00  0.00    +0.004 A 
ATOM      5  C   LIG    1        3.672  -0.135   1.204  0.00  0.00    +0.000 A 
ATOM      6  C   LIG    1        2.278  -0.105   1.241  0.00  0.00    +0.005 A 
ENDROOT
BRANCH   2   7
ATOM      7  O   LIG    1        1.532   0.177  -2.355  0.00  0.00    -0.507 OA
ATOM      8  H   LIG    1        2.111   0.194  -3.121  0.00  0.00    +0.292 HD
ENDBRANCH   2   7
BRANCH   1   9
ATOM      9  C   LIG    1        0.014   0.018   0.131  0.00  0.00    -0.047 C 
BRANCH   9  10
ATOM     10  N   LIG    1       -0.618   1.382  -0.174  0.00  0.00    +0.381 N 
ATOM     11  H   LIG    1       -0.307   2.069   0.497  0.00  0.00    -0.090 HD
ATOM     12  H   LIG    1       -0.356   1.683  -1.103  0.00  0.00    -0.090 HD
ATOM     13  H   LIG    1       -1.625   1.316  -0.129  0.00  0.00    -0.090 HD
ENDBRANCH   9  10
ENDBRANCH   1   9
TORSDOF 3
