REMARK  Name = DB14957
REMARK                            x       y       z     vdW  Elec       q    Type
REMARK                         _______ _______ _______ _____ _____    ______ ____
ROOT
ATOM      1  C   LIG    1        0.105   0.047  -0.052  0.00  0.00    +0.031 C 
ENDROOT
BRANCH   1   2
ATOM      2  C   LIG    1        1.636  -0.015  -0.177  0.00  0.00    -0.043 A 
ATOM      3  C   LIG    1        2.220  -0.810  -1.166  0.00  0.00    +0.004 A 
ATOM      4  C   LIG    1        3.605  -0.879  -1.284  0.00  0.00    +0.013 A 
ATOM      5  C   LIG    1        4.435  -0.157  -0.411  0.00  0.00    +0.037 A 
ATOM      6  C   LIG    1        3.839   0.634   0.581  0.00  0.00    +0.013 A 
ATOM      7  C   LIG    1        2.454   0.704   0.699  0.00  0.00    +0.004 A 
BRANCH   5   8
ATOM      8  C   LIG    1        5.947  -0.219  -0.515  0.00  0.00    +0.244 C 
ATOM      9  N   LIG    1        6.457  -0.949  -1.527  0.00  0.00    -0.311 N 
ATOM     10  H   LIG    1        5.816  -1.420  -2.149  0.00  0.00    +0.149 HD
ATOM     11  O   LIG    1        6.660   0.379   0.296  0.00  0.00    -0.270 OA
BRANCH   9  12
ATOM     12  C   LIG    1        7.880  -1.132  -1.812  0.00  0.00    +0.115 C 
BRANCH  12  13
ATOM     13  C   LIG    1        8.522   0.105  -2.496  0.00  0.00    +0.139 C 
BRANCH  13  14
ATOM     14  C   LIG    1       10.010  -0.068  -2.887  0.00  0.00    +0.306 C 
ATOM     15  O   LIG    1       10.529   0.888  -3.507  0.00  0.00    -0.251 OA
BRANCH  14  16
ATOM     16  O   LIG    1       10.626  -1.116  -2.580  0.00  0.00    -0.481 OA
ATOM     17  H   LIG    1       11.526  -1.218  -2.818  0.00  0.00    +0.295 HD
ENDBRANCH  14  16
ENDBRANCH  13  14
ENDBRANCH  12  13
ENDBRANCH   9  12
ENDBRANCH   5   8
ENDBRANCH   1   2
BRANCH   1  18
ATOM     18  C   LIG    1       -0.372  -0.713   1.221  0.00  0.00    +0.009 C 
BRANCH  18  20
ATOM     19  C   LIG    1       -0.525  -3.102   0.241  0.00  0.00    +0.004 C 
ATOM     20  C   LIG    1        0.061  -2.192   1.331  0.00  0.00    -0.003 C 
ENDBRANCH  18  20
ENDBRANCH   1  18
BRANCH   1  21
ATOM     21  C   LIG    1       -0.453   1.512  -0.118  0.00  0.00    +0.058 C 
BRANCH  21  22
ATOM     22  C   LIG    1        0.022   2.313  -1.332  0.00  0.00    -0.014 A 
ATOM     23  C   LIG    1        0.073   3.752  -1.421  0.00  0.00    +0.006 A 
ATOM     24  C   LIG    1       -0.264   4.791  -0.536  0.00  0.00    +0.013 A 
ATOM     25  C   LIG    1       -0.086   6.118  -0.932  0.00  0.00    -0.047 A 
ATOM     26  C   LIG    1        0.419   6.420  -2.197  0.00  0.00    +0.043 A 
ATOM     27  C   LIG    1        0.765   5.425  -3.110  0.00  0.00    +0.147 A 
ATOM     28  F   LIG    1        1.252   5.739  -4.332  0.00  0.00    -0.203 F 
ATOM     29  C   LIG    1       -0.455   7.234   0.028  0.00  0.00    +0.044 C 
ATOM     30  C   LIG    1        0.587   4.097  -2.708  0.00  0.00    +0.082 A 
ATOM     31  N   LIG    1        0.830   2.912  -3.363  0.00  0.00    -0.358 N 
ATOM     32  H   LIG    1        1.197   2.787  -4.296  0.00  0.00    +0.165 HD
ATOM     33  C   LIG    1        0.496   1.859  -2.553  0.00  0.00    +0.088 A 
ENDBRANCH  21  22
BRANCH  21  34
ATOM     34  C   LIG    1       -1.983   1.561  -0.025  0.00  0.00    -0.039 A 
ATOM     35  C   LIG    1       -2.598   2.060   1.129  0.00  0.00    +0.005 A 
ATOM     36  C   LIG    1       -3.987   2.091   1.223  0.00  0.00    +0.020 A 
ATOM     37  C   LIG    1       -4.763   1.621   0.165  0.00  0.00    +0.041 A 
ATOM     38 CL   LIG    1       -6.484   1.656   0.284  0.00  0.00    -0.084 Cl
ATOM     39  C   LIG    1       -4.160   1.120  -0.987  0.00  0.00    +0.020 A 
ATOM     40  C   LIG    1       -2.772   1.090  -1.082  0.00  0.00    +0.005 A 
ENDBRANCH  21  34
ENDBRANCH   1  21
TORSDOF 11
