REMARK  Name = DB14941
REMARK                            x       y       z     vdW  Elec       q    Type
REMARK                         _______ _______ _______ _____ _____    ______ ____
ROOT
ATOM      1  C   LIG    1       -0.414   1.352   0.185  0.00  0.00    +0.236 C 
ATOM      2  N   LIG    1       -0.579   1.894   1.424  0.00  0.00    -0.299 N 
ATOM      3  C   LIG    1       -1.205   3.218   1.598  0.00  0.00    +0.117 C 
ATOM      4  C   LIG    1       -2.670   3.031   2.126  0.00  0.00    +0.014 C 
ATOM      5  C   LIG    1       -3.214   4.461   2.388  0.00  0.00    +0.016 C 
ATOM      6  C   LIG    1       -3.519   2.338   1.023  0.00  0.00    +0.016 C 
ATOM      7  C   LIG    1       -2.653   2.168   3.467  0.00  0.00    +0.099 C 
ATOM      8  C   LIG    1       -1.767   0.888   3.273  0.00  0.00    +0.059 C 
ATOM      9  C   LIG    1       -0.365   1.178   2.690  0.00  0.00    +0.111 C 
ATOM     10  O   LIG    1       -0.605   1.999  -0.849  0.00  0.00    -0.274 OA
ENDROOT
BRANCH   7  11
ATOM     11  C   LIG    1       -4.083   1.836   3.981  0.00  0.00    -0.015 A 
ATOM     12  C   LIG    1       -4.726   2.681   4.903  0.00  0.00    +0.008 A 
ATOM     13  C   LIG    1       -6.011   2.399   5.358  0.00  0.00    +0.020 A 
ATOM     14  C   LIG    1       -6.675   1.268   4.893  0.00  0.00    +0.041 A 
ATOM     15 CL   LIG    1       -8.271   0.920   5.452  0.00  0.00    -0.084 Cl
ATOM     16  C   LIG    1       -6.062   0.421   3.975  0.00  0.00    +0.020 A 
ATOM     17  C   LIG    1       -4.777   0.704   3.522  0.00  0.00    +0.008 A 
ENDBRANCH   7  11
BRANCH   7  18
ATOM     18  O   LIG    1       -1.945   2.905   4.464  0.00  0.00    -0.383 OA
ATOM     19  H   LIG    1       -2.336   3.779   4.527  0.00  0.00    +0.211 HD
ENDBRANCH   7  18
BRANCH   1  20
ATOM     20  C   LIG    1        0.029  -0.133   0.044  0.00  0.00    +0.163 C 
BRANCH  20  21
ATOM     21  N   LIG    1        1.483  -0.138  -0.131  0.00  0.00    -0.288 N 
ATOM     22  H   LIG    1        1.823   0.408  -0.909  0.00  0.00    +0.151 HD
ATOM     23  C   LIG    1        2.381  -0.720   0.686  0.00  0.00    +0.300 C 
ATOM     24  N   LIG    1        3.676  -0.521   0.367  0.00  0.00    -0.297 N 
ATOM     25  H   LIG    1        4.360  -0.973   0.956  0.00  0.00    +0.150 HD
ATOM     26  O   LIG    1        2.069  -1.398   1.663  0.00  0.00    -0.253 OA
BRANCH  24  27
ATOM     27  C   LIG    1        4.239   0.263  -0.744  0.00  0.00    +0.139 C 
BRANCH  27  28
ATOM     28  C   LIG    1        4.473   1.774  -0.456  0.00  0.00    +0.076 C 
ATOM     29  C   LIG    1        5.027   2.485  -1.707  0.00  0.00    +0.042 C 
ATOM     30  C   LIG    1        5.403   1.991   0.757  0.00  0.00    +0.042 C 
BRANCH  28  31
ATOM     31  O   LIG    1        3.242   2.398  -0.139  0.00  0.00    -0.388 OA
ATOM     32  H   LIG    1        3.406   3.329   0.028  0.00  0.00    +0.210 HD
ENDBRANCH  28  31
ENDBRANCH  27  28
ENDBRANCH  24  27
ENDBRANCH  20  21
BRANCH  20  34
ATOM     33  C   LIG    1       -2.231  -0.770  -1.106  0.00  0.00    +0.009 C 
ATOM     34  C   LIG    1       -0.688  -0.829  -1.165  0.00  0.00    +0.012 C 
ATOM     35  C   LIG    1       -0.247  -2.298  -1.326  0.00  0.00    +0.009 C 
ENDBRANCH  20  34
ENDBRANCH   1  20
TORSDOF 8
