REMARK  Name = DB14950
REMARK                            x       y       z     vdW  Elec       q    Type
REMARK                         _______ _______ _______ _____ _____    ______ ____
ROOT
ATOM      1  C   LIG    1       -3.017  -2.122  -0.396  0.00  0.00    +0.093 A 
ATOM      2  C   LIG    1       -2.011  -1.131  -0.047  0.00  0.00    +0.069 A 
ATOM      3  C   LIG    1       -0.601  -1.015  -0.098  0.00  0.00    +0.143 A 
ATOM      4  C   LIG    1        0.024   0.161   0.359  0.00  0.00    +0.018 A 
ATOM      5  C   LIG    1       -0.749   1.219   0.849  0.00  0.00    +0.015 A 
ATOM      6  C   LIG    1       -2.137   1.151   0.909  0.00  0.00    +0.047 A 
ATOM      7  F   LIG    1        0.160  -2.025  -0.577  0.00  0.00    -0.204 F 
ATOM      8  C   LIG    1       -2.734  -0.027   0.457  0.00  0.00    +0.139 A 
ATOM      9  O   LIG    1       -4.069  -0.256   0.433  0.00  0.00    -0.454 OA
ATOM     10  C   LIG    1       -4.245  -1.509  -0.072  0.00  0.00    +0.148 A 
ENDROOT
BRANCH   4  11
ATOM     11  C   LIG    1        1.509   0.296   0.309  0.00  0.00    -0.011 A 
ATOM     12  C   LIG    1        2.154   0.204  -0.932  0.00  0.00    +0.022 A 
ATOM     13  C   LIG    1        3.548   0.321  -1.053  0.00  0.00    +0.037 A 
ATOM     14  C   LIG    1        4.300   0.532   0.107  0.00  0.00    +0.013 A 
ATOM     15  C   LIG    1        3.678   0.628   1.349  0.00  0.00    +0.005 A 
ATOM     16  C   LIG    1        2.290   0.512   1.462  0.00  0.00    -0.043 A 
ATOM     17  C   LIG    1        1.671   0.574   2.854  0.00  0.00    +0.044 C 
BRANCH  13  18
ATOM     18  C   LIG    1        4.240   0.198  -2.392  0.00  0.00    +0.245 C 
ATOM     19  N   LIG    1        3.487   0.471  -3.477  0.00  0.00    -0.299 N 
ATOM     20  H   LIG    1        2.491   0.421  -3.324  0.00  0.00    +0.150 HD
ATOM     21  O   LIG    1        5.432  -0.111  -2.458  0.00  0.00    -0.270 OA
BRANCH  19  22
ATOM     22  C   LIG    1        3.907   0.241  -4.867  0.00  0.00    +0.094 C 
ATOM     23  C   LIG    1        5.119   1.040  -5.341  0.00  0.00    +0.036 C 
ATOM     24  C   LIG    1        3.736   1.425  -5.800  0.00  0.00    +0.036 C 
BRANCH  22  25
ATOM     25  C   LIG    1        3.650  -1.178  -5.416  0.00  0.00    +0.152 A 
ATOM     26  N   LIG    1        4.292  -1.534  -6.565  0.00  0.00    -0.238 NA
ATOM     27  C   LIG    1        4.062  -2.791  -7.027  0.00  0.00    +0.114 A 
ATOM     28  C   LIG    1        3.213  -3.687  -6.373  0.00  0.00    +0.039 A 
ATOM     29  C   LIG    1        2.598  -3.232  -5.205  0.00  0.00    +0.114 A 
ATOM     30  N   LIG    1        2.804  -1.983  -4.711  0.00  0.00    -0.238 NA
ENDBRANCH  22  25
ENDBRANCH  19  22
ENDBRANCH  13  18
ENDBRANCH   4  11
BRANCH  10  31
ATOM     31  C   LIG    1       -5.674  -1.938  -0.129  0.00  0.00    +0.018 A 
ATOM     32  C   LIG    1       -6.067  -3.171   0.400  0.00  0.00    +0.014 A 
ATOM     33  C   LIG    1       -7.404  -3.557   0.350  0.00  0.00    +0.039 A 
ATOM     34  C   LIG    1       -8.348  -2.708  -0.224  0.00  0.00    +0.123 A 
ATOM     35  F   LIG    1       -9.646  -3.083  -0.273  0.00  0.00    -0.205 F 
ATOM     36  C   LIG    1       -7.965  -1.475  -0.748  0.00  0.00    +0.039 A 
ATOM     37  C   LIG    1       -6.628  -1.088  -0.698  0.00  0.00    +0.014 A 
ENDBRANCH  10  31
BRANCH   1  41
ATOM     38  C   LIG    1       -1.310  -5.297  -1.445  0.00  0.00    +0.128 C 
ATOM     39  N   LIG    1       -1.683  -3.989  -0.917  0.00  0.00    -0.314 N 
ATOM     40  H   LIG    1       -0.945  -3.462  -0.472  0.00  0.00    +0.149 HD
ATOM     41  C   LIG    1       -2.902  -3.435  -1.002  0.00  0.00    +0.248 C 
ATOM     42  O   LIG    1       -3.862  -3.985  -1.545  0.00  0.00    -0.270 OA
ENDBRANCH   1  41
TORSDOF 6
