REMARK  Name = DB14078
REMARK                            x       y       z     vdW  Elec       q    Type
REMARK                         _______ _______ _______ _____ _____    ______ ____
ROOT
ATOM      1  C   LIG    1        0.224   0.205  -0.232  0.00  0.00    +0.253 C 
ENDROOT
BRANCH   1   2
ATOM      2  P   LIG    1       -0.543   1.908  -0.280  0.00  0.00    +0.339 P 
ATOM      3  O   LIG    1       -0.053   2.870   0.778  0.00  0.00    -0.258 OA
BRANCH   2   4
ATOM      4  O   LIG    1       -0.204   2.417  -1.882  0.00  0.00    -0.324 OA
ATOM      5  H   LIG    1       -0.171   3.353  -2.158  0.00  0.00    +0.220 HD
ENDBRANCH   2   4
BRANCH   2   6
ATOM      6  O   LIG    1       -2.218   1.551  -0.179  0.00  0.00    -0.324 OA
ATOM      7  H   LIG    1       -2.625   1.047   0.551  0.00  0.00    +0.220 HD
ENDBRANCH   2   6
ENDBRANCH   1   2
BRANCH   1   8
ATOM      8  P   LIG    1        2.042  -0.100   0.074  0.00  0.00    +0.339 P 
ATOM      9  O   LIG    1        2.993   0.775  -0.712  0.00  0.00    -0.258 OA
BRANCH   8  10
ATOM     10  O   LIG    1        2.153   0.107   1.773  0.00  0.00    -0.324 OA
ATOM     11  H   LIG    1        1.894   0.924   2.239  0.00  0.00    +0.220 HD
ENDBRANCH   8  10
BRANCH   8  12
ATOM     12  O   LIG    1        2.199  -1.774  -0.268  0.00  0.00    -0.324 OA
ATOM     13  H   LIG    1        3.043  -2.200  -0.511  0.00  0.00    +0.220 HD
ENDBRANCH   8  12
ENDBRANCH   1   8
TORSDOF 6
