REMARK  Name = DB14656
REMARK                            x       y       z     vdW  Elec       q    Type
REMARK                         _______ _______ _______ _____ _____    ______ ____
ROOT
ATOM      1  C   LIG    1        1.495  -0.167   0.140  0.00  0.00    +0.189 C 
ENDROOT
BRANCH   1   2
ATOM      2  O   LIG    1        1.922   0.452   1.339  0.00  0.00    -0.385 OA
ATOM      3  H   LIG    1        1.517   1.321   1.393  0.00  0.00    +0.210 HD
ENDBRANCH   1   2
BRANCH   1   4
ATOM      4  C   LIG    1       -0.045  -0.195   0.121  0.00  0.00    +0.263 C 
BRANCH   4   5
ATOM      5  O   LIG    1       -0.545   1.136   0.005  0.00  0.00    -0.489 OA
BRANCH   5   7
ATOM      6  C   LIG    1       -2.329   2.677  -0.133  0.00  0.00    +0.047 A 
ATOM      7  C   LIG    1       -1.910   1.350  -0.018  0.00  0.00    +0.121 A 
ATOM      8  C   LIG    1       -2.873   0.331   0.067  0.00  0.00    +0.047 A 
ATOM      9  C   LIG    1       -4.229   0.643   0.037  0.00  0.00    +0.023 A 
ATOM     10  C   LIG    1       -4.632   1.972  -0.080  0.00  0.00    +0.041 A 
ATOM     11 CL   LIG    1       -6.313   2.358  -0.119  0.00  0.00    -0.084 Cl
ATOM     12  C   LIG    1       -3.686   2.990  -0.164  0.00  0.00    +0.023 A 
ENDBRANCH   5   7
ENDBRANCH   4   5
ENDBRANCH   1   4
BRANCH   1  13
ATOM     13  C   LIG    1        2.095  -1.583   0.061  0.00  0.00    +0.268 C 
BRANCH  13  14
ATOM     14  O   LIG    1        3.514  -1.520  -0.055  0.00  0.00    -0.448 OA
BRANCH  14  15
ATOM     15  C   LIG    1        4.250  -2.645  -0.121  0.00  0.00    +0.398 C 
ATOM     16  N   LIG    1        5.583  -2.313  -0.214  0.00  0.00    -0.295 N 
ATOM     17  H   LIG    1        5.852  -1.340  -0.215  0.00  0.00    +0.148 HD
ATOM     18  H   LIG    1        6.272  -3.048  -0.271  0.00  0.00    +0.148 HD
ATOM     19  O   LIG    1        3.807  -3.793  -0.102  0.00  0.00    -0.227 OA
ENDBRANCH  14  15
ENDBRANCH  13  14
ENDBRANCH   1  13
TORSDOF 7
