REMARK  Name = DB14989
REMARK                            x       y       z     vdW  Elec       q    Type
REMARK                         _______ _______ _______ _____ _____    ______ ____
ROOT
ATOM      1  C   LIG    1        1.218   0.266   0.203  0.00  0.00    +0.105 A 
ATOM      2  C   LIG    1        2.069  -0.260   1.236  0.00  0.00    +0.086 A 
ATOM      3  C   LIG    1        1.986  -1.030   2.415  0.00  0.00    +0.131 A 
ATOM      4  N   LIG    1        3.097  -1.310   3.144  0.00  0.00    -0.220 NA
ATOM      5  C   LIG    1        4.275  -0.808   2.696  0.00  0.00    +0.225 A 
ATOM      6  N   LIG    1        4.486  -0.044   1.591  0.00  0.00    -0.216 NA
ATOM      7  C   LIG    1        3.365   0.200   0.899  0.00  0.00    +0.164 A 
ATOM      8  N   LIG    1        3.224   0.937  -0.262  0.00  0.00    -0.235 N 
ATOM      9  N   LIG    1        1.923   1.003  -0.627  0.00  0.00    -0.168 NA
ENDROOT
BRANCH   1  13
ATOM     10  C   LIG    1       -3.034  -0.239  -0.345  0.00  0.00    +0.156 A 
ATOM     11  C   LIG    1       -2.430   1.015  -0.535  0.00  0.00    +0.049 A 
ATOM     12  C   LIG    1       -1.054   1.173  -0.365  0.00  0.00    +0.014 A 
ATOM     13  C   LIG    1       -0.251   0.087  -0.001  0.00  0.00    +0.006 A 
ATOM     14  C   LIG    1       -0.851  -1.160   0.191  0.00  0.00    +0.052 A 
ATOM     15  C   LIG    1       -2.226  -1.322   0.019  0.00  0.00    +0.165 A 
ATOM     16  F   LIG    1       -2.775  -2.545   0.207  0.00  0.00    -0.202 F 
BRANCH  10  17
ATOM     17  O   LIG    1       -4.389  -0.490  -0.487  0.00  0.00    -0.486 OA
BRANCH  17  19
ATOM     18  C   LIG    1       -6.700   0.081  -0.463  0.00  0.00    +0.051 C 
ATOM     19  C   LIG    1       -5.296   0.544  -0.878  0.00  0.00    +0.167 C 
ATOM     20  C   LIG    1       -5.209   0.805  -2.394  0.00  0.00    +0.051 C 
ENDBRANCH  17  19
ENDBRANCH  10  17
ENDBRANCH   1  13
BRANCH   3  21
ATOM     21  N   LIG    1        0.775  -1.512   2.904  0.00  0.00    -0.342 N 
ATOM     22  H   LIG    1        0.767  -2.049   3.759  0.00  0.00    +0.144 HD
ATOM     23  H   LIG    1       -0.079  -1.317   2.402  0.00  0.00    +0.144 HD
ENDBRANCH   3  21
BRANCH   8  24
ATOM     24  C   LIG    1        4.255   1.721  -0.959  0.00  0.00    +0.173 C 
ATOM     25  C   LIG    1        3.896   2.014  -2.435  0.00  0.00    +0.041 C 
BRANCH  24  26
ATOM     26  C   LIG    1        4.629   2.978  -0.167  0.00  0.00    +0.141 A 
ATOM     27  O   LIG    1        3.522   3.765  -0.078  0.00  0.00    -0.457 OA
ATOM     28  C   LIG    1        3.591   4.947   0.623  0.00  0.00    +0.139 A 
ATOM     29  C   LIG    1        2.425   5.710   0.688  0.00  0.00    +0.050 A 
ATOM     30  C   LIG    1        2.431   6.921   1.379  0.00  0.00    +0.042 A 
ATOM     31  C   LIG    1        3.598   7.363   2.002  0.00  0.00    +0.124 A 
ATOM     32  F   LIG    1        3.602   8.537   2.672  0.00  0.00    -0.205 F 
ATOM     33  C   LIG    1        4.762   6.595   1.934  0.00  0.00    +0.053 A 
ATOM     34  C   LIG    1        4.774   5.373   1.243  0.00  0.00    +0.067 A 
ATOM     35  C   LIG    1        6.012   4.535   1.155  0.00  0.00    +0.201 A 
ATOM     36  O   LIG    1        7.068   4.899   1.677  0.00  0.00    -0.286 OA
ATOM     37  C   LIG    1        5.832   3.271   0.402  0.00  0.00    +0.070 A 
BRANCH  37  38
ATOM     38  C   LIG    1        7.021   2.395   0.236  0.00  0.00    -0.008 A 
ATOM     39  C   LIG    1        7.528   2.108  -1.039  0.00  0.00    +0.047 A 
ATOM     40  C   LIG    1        8.642   1.283  -1.195  0.00  0.00    +0.124 A 
ATOM     41  F   LIG    1        9.115   1.014  -2.433  0.00  0.00    -0.205 F 
ATOM     42  C   LIG    1        9.267   0.737  -0.075  0.00  0.00    +0.038 A 
ATOM     43  C   LIG    1        8.777   1.017   1.200  0.00  0.00    +0.003 A 
ATOM     44  C   LIG    1        7.663   1.841   1.354  0.00  0.00    +0.009 A 
ENDBRANCH  37  38
ENDBRANCH  24  26
ENDBRANCH   8  24
TORSDOF 7
