REMARK  Name = DB14752
REMARK                            x       y       z     vdW  Elec       q    Type
REMARK                         _______ _______ _______ _____ _____    ______ ____
ROOT
ATOM      1  C   LIG    1        0.052  -0.211   0.054  0.00  0.00    +0.161 C 
ENDROOT
BRANCH   1   2
ATOM      2  C   LIG    1       -0.463  -0.810  -1.256  0.00  0.00    -0.018 A 
ATOM      3  C   LIG    1       -1.075  -2.068  -1.255  0.00  0.00    +0.006 A 
ATOM      4  C   LIG    1       -1.547  -2.615  -2.445  0.00  0.00    +0.000 A 
ATOM      5  C   LIG    1       -1.411  -1.903  -3.635  0.00  0.00    +0.000 A 
ATOM      6  C   LIG    1       -0.810  -0.647  -3.645  0.00  0.00    +0.000 A 
ATOM      7  C   LIG    1       -0.337  -0.099  -2.456  0.00  0.00    +0.006 A 
ENDBRANCH   1   2
BRANCH   1   8
ATOM      8  O   LIG    1       -0.714   0.929   0.404  0.00  0.00    -0.386 OA
ATOM      9  H   LIG    1       -1.620   0.650   0.555  0.00  0.00    +0.210 HD
ENDBRANCH   1   8
BRANCH   1  10
ATOM     10  C   LIG    1        1.582   0.133   0.056  0.00  0.00    +0.083 C 
ATOM     11  C   LIG    1        2.011   0.971   1.284  0.00  0.00    +0.027 C 
BRANCH  10  12
ATOM     12  N   LIG    1        2.446  -1.051   0.087  0.00  0.00    -0.314 NA
ATOM     13  H   LIG    1        3.360  -0.816   0.447  0.00  0.00    +0.122 HD
ATOM     14  C   LIG    1        2.560  -1.772  -1.172  0.00  0.00    +0.101 C 
ENDBRANCH  10  12
ENDBRANCH   1  10
TORSDOF 4
