REMARK  Name = DB14650
REMARK                            x       y       z     vdW  Elec       q    Type
REMARK                         _______ _______ _______ _____ _____    ______ ____
ROOT
ATOM      1  C   LIG    1        0.059  -0.066   0.027  0.00  0.00    +0.143 A 
ATOM      2  C   LIG    1       -0.722  -1.230   0.030  0.00  0.00    -0.004 A 
ATOM      3  C   LIG    1       -0.078  -2.608   0.071  0.00  0.00    +0.048 C 
ATOM      4  C   LIG    1       -2.110  -1.142  -0.030  0.00  0.00    +0.053 A 
ATOM      5  C   LIG    1       -2.756   0.089  -0.111  0.00  0.00    +0.140 A 
ATOM      6  C   LIG    1       -1.995   1.288  -0.128  0.00  0.00    +0.028 A 
ATOM      7  C   LIG    1       -2.612   2.565  -0.210  0.00  0.00    +0.012 A 
ATOM      8  C   LIG    1       -1.843   3.723  -0.241  0.00  0.00    +0.001 A 
ATOM      9  C   LIG    1       -0.456   3.650  -0.194  0.00  0.00    +0.001 A 
ATOM     10  C   LIG    1        0.183   2.417  -0.111  0.00  0.00    +0.012 A 
ATOM     11  C   LIG    1       -0.568   1.210  -0.070  0.00  0.00    +0.028 A 
ENDROOT
BRANCH   1  12
ATOM     12  O   LIG    1        1.427  -0.153   0.080  0.00  0.00    -0.403 OA
BRANCH  12  13
ATOM     13  P   LIG    1        2.267  -0.253   1.475  0.00  0.00    +0.528 P 
ATOM     14  O   LIG    1        2.002  -1.458   2.307  0.00  0.00    -0.216 OA
BRANCH  13  15
ATOM     15  O   LIG    1        1.984   1.173   2.200  0.00  0.00    -0.293 OA
ATOM     16  H   LIG    1        1.635   1.122   3.110  0.00  0.00    +0.223 HD
ENDBRANCH  13  15
BRANCH  13  17
ATOM     17  O   LIG    1        3.803  -0.103   0.969  0.00  0.00    -0.293 OA
ATOM     18  H   LIG    1        3.994   0.677   0.414  0.00  0.00    +0.223 HD
ENDBRANCH  13  17
ENDBRANCH  12  13
ENDBRANCH   1  12
BRANCH   5  19
ATOM     19  O   LIG    1       -4.125   0.136  -0.146  0.00  0.00    -0.403 OA
BRANCH  19  20
ATOM     20  P   LIG    1       -4.988  -0.180  -1.490  0.00  0.00    +0.528 P 
ATOM     21  O   LIG    1       -4.668   0.668  -2.671  0.00  0.00    -0.216 OA
BRANCH  20  22
ATOM     22  O   LIG    1       -6.521  -0.060  -0.968  0.00  0.00    -0.293 OA
ATOM     23  H   LIG    1       -7.088   0.561  -1.464  0.00  0.00    +0.223 HD
ENDBRANCH  20  22
BRANCH  20  24
ATOM     24  O   LIG    1       -4.802  -1.781  -1.695  0.00  0.00    -0.293 OA
ATOM     25  H   LIG    1       -5.040  -2.337  -0.929  0.00  0.00    +0.223 HD
ENDBRANCH  20  24
ENDBRANCH  19  20
ENDBRANCH   5  19
TORSDOF 8
