REMARK  Name = DB14674
REMARK                            x       y       z     vdW  Elec       q    Type
REMARK                         _______ _______ _______ _____ _____    ______ ____
ROOT
ATOM      1  C   LIG    1        8.613   1.290   0.423  0.00  0.00    -0.002 C 
ATOM      2  C   LIG    1        8.352   2.826   0.531  0.00  0.00    +0.014 C 
ATOM      3  C   LIG    1        8.136   0.739  -0.942  0.00  0.00    +0.010 C 
ATOM      4  C   LIG    1        6.596   0.843  -1.100  0.00  0.00    +0.009 C 
ATOM      5  C   LIG    1        5.820   0.210   0.101  0.00  0.00    +0.023 C 
ATOM      6  C   LIG    1        4.279   0.321   0.051  0.00  0.00    -0.041 A 
ATOM      7  C   LIG    1        3.597   0.423  -1.172  0.00  0.00    +0.008 A 
ATOM      8  C   LIG    1        2.207   0.447  -1.235  0.00  0.00    +0.047 A 
ATOM      9  C   LIG    1        1.457   0.378  -0.065  0.00  0.00    +0.134 A 
ATOM     10  C   LIG    1        2.114   0.280   1.160  0.00  0.00    +0.050 A 
ATOM     11  C   LIG    1        3.511   0.267   1.244  0.00  0.00    -0.040 A 
ATOM     12  C   LIG    1        4.168   0.247   2.628  0.00  0.00    +0.036 C 
ATOM     13  C   LIG    1        5.643  -0.172   2.577  0.00  0.00    +0.009 C 
ATOM     14  C   LIG    1        6.378   0.637   1.495  0.00  0.00    +0.000 C 
ATOM     15  C   LIG    1       10.084   0.972   0.778  0.00  0.00    +0.136 C 
ATOM     16  C   LIG    1       10.148   0.979   2.321  0.00  0.00    +0.033 C 
ATOM     17  C   LIG    1        8.704   0.733   2.805  0.00  0.00    +0.007 C 
ATOM     18  C   LIG    1        7.916   0.448   1.517  0.00  0.00    +0.001 C 
ENDROOT
BRANCH   9  19
ATOM     19  O   LIG    1        0.082   0.366  -0.118  0.00  0.00    -0.411 OA
BRANCH  19  20
ATOM     20  C   LIG    1       -0.616   1.545  -0.061  0.00  0.00    +0.408 C 
ATOM     21  O   LIG    1       -0.082   2.657   0.009  0.00  0.00    -0.226 OA
ATOM     22  N   LIG    1       -2.005   1.321  -0.090  0.00  0.00    -0.265 N 
BRANCH  22  23
ATOM     23  C   LIG    1       -2.605  -0.022  -0.136  0.00  0.00    +0.127 C 
BRANCH  23  24
ATOM     24  C   LIG    1       -2.701  -0.684   1.248  0.00  0.00    +0.127 C 
ATOM     25 CL   LIG    1       -3.446  -2.296   1.105  0.00  0.00    -0.124 Cl
ENDBRANCH  23  24
ENDBRANCH  22  23
BRANCH  22  26
ATOM     26  C   LIG    1       -2.939   2.455  -0.027  0.00  0.00    +0.127 C 
BRANCH  26  27
ATOM     27  C   LIG    1       -3.590   2.807  -1.378  0.00  0.00    +0.127 C 
ATOM     28 CL   LIG    1       -2.382   3.369  -2.565  0.00  0.00    -0.124 Cl
ENDBRANCH  26  27
ENDBRANCH  22  26
ENDBRANCH  19  20
ENDBRANCH   9  19
BRANCH  15  29
ATOM     29  O   LIG    1       10.986   1.910   0.208  0.00  0.00    -0.283 OA
BRANCH  29  30
ATOM     30  P   LIG    1       12.527   1.489  -0.119  0.00  0.00    +0.473 P 
ATOM     31  O   LIG    1       13.292   0.911   1.019  0.00  0.00    -0.228 OA
BRANCH  30  32
ATOM     32  O   LIG    1       13.147   2.852  -0.747  0.00  0.00    -0.303 OA
ATOM     33  H   LIG    1       13.930   3.212  -0.287  0.00  0.00    +0.222 HD
ENDBRANCH  30  32
BRANCH  30  34
ATOM     34  O   LIG    1       12.376   0.522  -1.415  0.00  0.00    -0.303 OA
ATOM     35  H   LIG    1       12.818  -0.346  -1.349  0.00  0.00    +0.222 HD
ENDBRANCH  30  34
ENDBRANCH  29  30
ENDBRANCH  15  29
TORSDOF 10
