REMARK  Name = DB14888
REMARK                            x       y       z     vdW  Elec       q    Type
REMARK                         _______ _______ _______ _____ _____    ______ ____
ROOT
ATOM      1  C   LIG    1       -0.785  -1.237   0.090  0.00  0.00    +0.047 A 
ATOM      2  C   LIG    1       -2.227  -0.999   0.220  0.00  0.00    +0.258 A 
ATOM      3  O   LIG    1       -3.101  -1.860   0.308  0.00  0.00    -0.267 OA
ATOM      4  N   LIG    1       -2.571   0.314   0.243  0.00  0.00    -0.275 N 
ATOM      5  H   LIG    1       -3.559   0.493   0.341  0.00  0.00    +0.173 HD
ATOM      6  C   LIG    1       -1.791   1.429   0.167  0.00  0.00    +0.330 A 
ATOM      7  O   LIG    1       -2.329   2.537   0.235  0.00  0.00    -0.246 OA
ATOM      8  N   LIG    1       -0.440   1.180   0.030  0.00  0.00    -0.290 N 
ATOM      9  C   LIG    1        0.030  -0.137   0.010  0.00  0.00    +0.102 A 
ENDROOT
BRANCH   1  11
ATOM     10  C   LIG    1       -0.845  -3.497  -1.186  0.00  0.00    +0.012 C 
ATOM     11  C   LIG    1       -0.325  -2.721   0.044  0.00  0.00    +0.020 C 
ATOM     12  C   LIG    1       -0.578  -3.490   1.357  0.00  0.00    +0.012 C 
ENDBRANCH   1  11
BRANCH   9  13
ATOM     13  C   LIG    1        1.490  -0.328  -0.105  0.00  0.00    +0.210 C 
ATOM     14  O   LIG    1        2.143  -0.582   0.909  0.00  0.00    -0.285 OA
BRANCH  13  15
ATOM     15  C   LIG    1        2.145  -0.125  -1.436  0.00  0.00    +0.024 A 
ATOM     16  C   LIG    1        1.418  -0.254  -2.629  0.00  0.00    +0.015 A 
ATOM     17  C   LIG    1        2.043  -0.088  -3.868  0.00  0.00    -0.050 A 
ATOM     18  C   LIG    1        1.250  -0.224  -5.155  0.00  0.00    +0.044 C 
ATOM     19  C   LIG    1        3.408   0.201  -3.920  0.00  0.00    +0.006 A 
ATOM     20  C   LIG    1        4.149   0.321  -2.743  0.00  0.00    -0.050 A 
ATOM     21  C   LIG    1        5.636   0.619  -2.797  0.00  0.00    +0.044 C 
ATOM     22  C   LIG    1        3.518   0.150  -1.508  0.00  0.00    +0.015 A 
ENDBRANCH  13  15
ENDBRANCH   9  13
BRANCH   8  23
ATOM     23  C   LIG    1        0.407   2.396  -0.065  0.00  0.00    +0.130 C 
BRANCH  23  24
ATOM     24  C   LIG    1        1.020   2.812   1.287  0.00  0.00    +0.009 C 
ATOM     25  C   LIG    1        2.488   3.164   1.350  0.00  0.00    +0.005 C 
ATOM     26  C   LIG    1        1.447   4.250   1.471  0.00  0.00    +0.005 C 
ENDBRANCH  23  24
ENDBRANCH   8  23
TORSDOF 5
