REMARK  Name = DB14636
REMARK                            x       y       z     vdW  Elec       q    Type
REMARK                         _______ _______ _______ _____ _____    ______ ____
ROOT
ATOM      1  C   LIG    1        1.592  -0.048  -0.080  0.00  0.00    +0.252 C 
ATOM      2  O   LIG    1        2.127   0.873   0.820  0.00  0.00    -0.346 OA
ATOM      3  C   LIG    1        3.382   1.375   0.363  0.00  0.00    +0.178 C 
ATOM      4  C   LIG    1        3.604   0.676  -0.990  0.00  0.00    +0.178 C 
ATOM      5  C   LIG    1        2.189   0.308  -1.438  0.00  0.00    +0.195 C 
ENDROOT
BRANCH   1   8
ATOM      6  N   LIG    1       -0.417   2.421  -0.499  0.00  0.00    -0.218 NA
ATOM      7  C   LIG    1       -0.665   1.106  -0.218  0.00  0.00    +0.149 A 
ATOM      8  N   LIG    1        0.146  -0.011  -0.018  0.00  0.00    -0.302 N 
ATOM      9  C   LIG    1       -0.703  -1.099   0.235  0.00  0.00    +0.102 A 
ATOM     10  C   LIG    1       -2.018  -0.693   0.203  0.00  0.00    +0.047 A 
ATOM     11  C   LIG    1       -3.339  -1.185   0.348  0.00  0.00    +0.146 A 
ATOM     12  N   LIG    1       -4.457  -0.412   0.233  0.00  0.00    -0.154 NA
ATOM     13  N   LIG    1       -4.282   0.925  -0.022  0.00  0.00    -0.248 N 
ATOM     14  C   LIG    1       -5.537   1.687  -0.170  0.00  0.00    +0.174 C 
ATOM     15  C   LIG    1       -3.052   1.542  -0.204  0.00  0.00    +0.162 A 
ATOM     16  N   LIG    1       -2.837   2.862  -0.489  0.00  0.00    -0.216 NA
ATOM     17  C   LIG    1       -1.961   0.663  -0.071  0.00  0.00    +0.073 A 
ATOM     18  C   LIG    1       -1.522   3.222  -0.619  0.00  0.00    +0.225 A 
BRANCH  11  19
ATOM     19  N   LIG    1       -3.557  -2.533   0.620  0.00  0.00    -0.341 N 
ATOM     20  H   LIG    1       -4.504  -2.867   0.718  0.00  0.00    +0.144 HD
ATOM     21  H   LIG    1       -2.769  -3.156   0.714  0.00  0.00    +0.144 HD
ENDBRANCH  11  19
ENDBRANCH   1   8
BRANCH   4  22
ATOM     22  O   LIG    1        4.477  -0.437  -0.876  0.00  0.00    -0.386 OA
ATOM     23  H   LIG    1        4.171  -0.990  -0.154  0.00  0.00    +0.210 HD
ENDBRANCH   4  22
BRANCH   5  24
ATOM     24  O   LIG    1        2.059  -0.772  -2.347  0.00  0.00    -0.385 OA
ATOM     25  H   LIG    1        2.414  -0.497  -3.196  0.00  0.00    +0.210 HD
ENDBRANCH   5  24
BRANCH   3  26
ATOM     26  C   LIG    1        3.259   2.910   0.288  0.00  0.00    +0.206 C 
BRANCH  26  27
ATOM     27  O   LIG    1        4.445   3.531  -0.180  0.00  0.00    -0.284 OA
BRANCH  27  28
ATOM     28  P   LIG    1        5.924   3.593   0.777  0.00  0.00    +0.472 P 
ATOM     29  O   LIG    1        5.504   4.097   2.170  0.00  0.00    -0.228 OA
BRANCH  28  30
ATOM     30  O   LIG    1        6.483   2.158   0.800  0.00  0.00    -0.303 OA
ATOM     31  H   LIG    1        6.730   1.893  -0.100  0.00  0.00    +0.222 HD
ENDBRANCH  28  30
BRANCH  28  32
ATOM     32  O   LIG    1        6.847   4.578   0.037  0.00  0.00    -0.303 OA
ATOM     33  H   LIG    1        6.451   5.464   0.051  0.00  0.00    +0.222 HD
ENDBRANCH  28  32
ENDBRANCH  27  28
ENDBRANCH  26  27
ENDBRANCH   3  26
TORSDOF 9
