REMARK  Name = DB14890
REMARK                            x       y       z     vdW  Elec       q    Type
REMARK                         _______ _______ _______ _____ _____    ______ ____
ROOT
ATOM      1  N   LIG    1        1.742  -0.047   0.170  0.00  0.00    -0.288 N 
ENDROOT
BRANCH   1  10
ATOM      2  C   LIG    1       -0.534   1.960  -3.946  0.00  0.00    +0.407 C 
ATOM      3  N   LIG    1       -0.458   1.514  -2.599  0.00  0.00    -0.234 N 
ATOM      4  C   LIG    1       -0.986   0.242  -2.173  0.00  0.00    +0.045 A 
ATOM      5  C   LIG    1       -1.937  -0.460  -2.944  0.00  0.00    +0.024 A 
ATOM      6  C   LIG    1       -2.419  -1.709  -2.562  0.00  0.00    +0.014 A 
ATOM      7  C   LIG    1       -1.978  -2.301  -1.380  0.00  0.00    +0.055 A 
ATOM      8  C   LIG    1       -1.074  -1.602  -0.582  0.00  0.00    +0.019 A 
ATOM      9  C   LIG    1       -0.595  -0.338  -0.943  0.00  0.00    -0.005 A 
ATOM     10  C   LIG    1        0.336   0.400   0.007  0.00  0.00    +0.110 C 
ATOM     11  C   LIG    1        0.214   1.919  -0.234  0.00  0.00    +0.050 C 
ATOM     12  C   LIG    1        0.387   2.380  -1.702  0.00  0.00    +0.087 C 
ATOM     13  O   LIG    1       -0.602   1.231  -4.939  0.00  0.00    -0.226 OA
BRANCH   7  14
ATOM     14  C   LIG    1       -2.484  -3.672  -0.935  0.00  0.00    +0.417 C 
ATOM     15  F   LIG    1       -1.491  -4.557  -1.027  0.00  0.00    -0.166 F 
ATOM     16  F   LIG    1       -3.503  -4.105  -1.681  0.00  0.00    -0.166 F 
ATOM     17  F   LIG    1       -2.893  -3.620   0.333  0.00  0.00    -0.166 F 
ENDBRANCH   7  14
BRANCH  12  18
ATOM     18  C   LIG    1        1.875   2.564  -2.140  0.00  0.00    +0.020 C 
ATOM     19  C   LIG    1        2.752   3.398  -1.192  0.00  0.00    +0.006 C 
ENDBRANCH  12  18
BRANCH   2  20
ATOM     20  O   LIG    1       -0.543   3.320  -4.037  0.00  0.00    -0.450 OA
BRANCH  20  22
ATOM     21  C   LIG    1       -0.588   5.490  -5.087  0.00  0.00    +0.048 C 
ATOM     22  C   LIG    1       -0.588   3.973  -5.299  0.00  0.00    +0.230 C 
ENDBRANCH  20  22
ENDBRANCH   2  20
ENDBRANCH   1  10
BRANCH   1  23
ATOM     23  C   LIG    1        2.550  -0.613  -0.867  0.00  0.00    +0.219 A 
ATOM     24  N   LIG    1        1.968  -0.965  -2.050  0.00  0.00    -0.219 NA
ATOM     25  C   LIG    1        2.753  -1.485  -3.026  0.00  0.00    +0.161 A 
ATOM     26  C   LIG    1        4.132  -1.673  -2.861  0.00  0.00    +0.157 A 
ATOM     27  C   LIG    1        4.652  -1.298  -1.623  0.00  0.00    +0.161 A 
ATOM     28  N   LIG    1        3.886  -0.775  -0.632  0.00  0.00    -0.219 NA
BRANCH  26  29
ATOM     29  O   LIG    1        4.992  -2.192  -3.806  0.00  0.00    -0.489 OA
BRANCH  29  30
ATOM     30  C   LIG    1        4.501  -2.455  -5.116  0.00  0.00    +0.230 C 
BRANCH  30  31
ATOM     31  C   LIG    1        5.659  -2.854  -6.053  0.00  0.00    +0.052 C 
BRANCH  31  32
ATOM     32  C   LIG    1        6.657  -1.714  -6.396  0.00  0.00    +0.124 C 
BRANCH  32  33
ATOM     33  C   LIG    1        7.565  -1.263  -5.228  0.00  0.00    +0.305 C 
ATOM     34  O   LIG    1        7.793  -0.036  -5.130  0.00  0.00    -0.251 OA
BRANCH  33  35
ATOM     35  O   LIG    1        8.056  -2.134  -4.473  0.00  0.00    -0.481 OA
ATOM     36  H   LIG    1        8.608  -1.879  -3.760  0.00  0.00    +0.295 HD
ENDBRANCH  33  35
ENDBRANCH  32  33
ENDBRANCH  31  32
ENDBRANCH  30  31
ENDBRANCH  29  30
ENDBRANCH  26  29
ENDBRANCH   1  23
BRANCH   1  37
ATOM     37  C   LIG    1        2.364   0.286   1.466  0.00  0.00    +0.143 C 
BRANCH  37  38
ATOM     38  C   LIG    1        2.338  -0.920   2.398  0.00  0.00    -0.029 A 
ATOM     39  C   LIG    1        3.443  -1.771   2.484  0.00  0.00    +0.017 A 
ATOM     40  C   LIG    1        3.411  -2.906   3.301  0.00  0.00    +0.056 A 
ATOM     41  C   LIG    1        2.253  -3.182   4.039  0.00  0.00    +0.024 A 
ATOM     42  C   LIG    1        1.136  -2.340   3.963  0.00  0.00    +0.056 A 
ATOM     43  C   LIG    1        1.190  -1.212   3.138  0.00  0.00    +0.017 A 
BRANCH  40  44
ATOM     44  C   LIG    1        4.630  -3.825   3.368  0.00  0.00    +0.417 C 
ATOM     45  F   LIG    1        4.343  -5.005   3.922  0.00  0.00    -0.166 F 
ATOM     46  F   LIG    1        5.577  -3.239   4.100  0.00  0.00    -0.166 F 
ATOM     47  F   LIG    1        5.112  -4.051   2.145  0.00  0.00    -0.166 F 
ENDBRANCH  40  44
BRANCH  42  48
ATOM     48  C   LIG    1       -0.137  -2.633   4.755  0.00  0.00    +0.417 C 
ATOM     49  F   LIG    1       -1.190  -2.640   3.936  0.00  0.00    -0.166 F 
ATOM     50  F   LIG    1       -0.314  -1.683   5.673  0.00  0.00    -0.166 F 
ATOM     51  F   LIG    1       -0.090  -3.812   5.379  0.00  0.00    -0.166 F 
ENDBRANCH  42  48
ENDBRANCH  37  38
ENDBRANCH   1  37
TORSDOF 16
