REMARK  Name = DB14669
REMARK                            x       y       z     vdW  Elec       q    Type
REMARK                         _______ _______ _______ _____ _____    ______ ____
ROOT
ATOM      1  C   LIG    1       -3.490  -1.461   5.596  0.00  0.00    -0.009 C 
ATOM      2  C   LIG    1       -4.678  -1.174   6.162  0.00  0.00    +0.047 C 
ATOM      3  C   LIG    1       -5.964  -1.615   5.627  0.00  0.00    +0.179 C 
ATOM      4  O   LIG    1       -7.040  -1.353   6.160  0.00  0.00    -0.288 OA
ATOM      5  C   LIG    1       -5.848  -2.392   4.393  0.00  0.00    +0.051 C 
ATOM      6  C   LIG    1       -4.685  -2.712   3.777  0.00  0.00    -0.053 C 
ATOM      7  C   LIG    1       -4.653  -3.502   2.470  0.00  0.00    +0.032 C 
ATOM      8  C   LIG    1       -3.963  -2.656   1.388  0.00  0.00    +0.011 C 
ATOM      9  C   LIG    1       -2.541  -2.202   1.798  0.00  0.00    +0.034 C 
ATOM     10  C   LIG    1       -2.565  -1.445   3.179  0.00  0.00    +0.153 C 
ATOM     11  F   LIG    1       -3.344  -0.369   2.987  0.00  0.00    -0.238 F 
ATOM     12  C   LIG    1       -1.167  -0.818   3.551  0.00  0.00    +0.154 C 
ATOM     13  C   LIG    1       -0.517  -0.053   2.360  0.00  0.00    +0.044 C 
ATOM     14  C   LIG    1       -0.429  -0.883   1.038  0.00  0.00    +0.010 C 
ATOM     15  C   LIG    1        0.534  -2.107   1.224  0.00  0.00    +0.015 C 
ATOM     16  C   LIG    1       -0.098  -0.062  -0.277  0.00  0.00    +0.134 C 
ATOM     17  C   LIG    1       -0.766  -0.908  -1.441  0.00  0.00    +0.026 C 
ATOM     18  C   LIG    1        0.113  -1.702  -2.437  0.00  0.00    +0.011 C 
ATOM     19  C   LIG    1       -1.808  -1.822  -0.747  0.00  0.00    +0.011 C 
ATOM     20  C   LIG    1       -1.875  -1.321   0.701  0.00  0.00    +0.005 C 
ATOM     21  C   LIG    1       -3.286  -2.288   4.314  0.00  0.00    +0.044 C 
ATOM     22  C   LIG    1       -2.535  -3.581   4.741  0.00  0.00    +0.023 C 
ENDROOT
BRANCH  12  23
ATOM     23  O   LIG    1       -0.246  -1.726   4.121  0.00  0.00    -0.389 OA
ATOM     24  H   LIG    1       -0.636  -2.099   4.915  0.00  0.00    +0.210 HD
ENDBRANCH  12  23
BRANCH  16  25
ATOM     25  O   LIG    1       -0.729   1.219  -0.283  0.00  0.00    -0.380 OA
ATOM     26  H   LIG    1       -1.673   1.093  -0.157  0.00  0.00    +0.211 HD
ENDBRANCH  16  25
BRANCH  16  27
ATOM     27  C   LIG    1        1.441   0.235  -0.425  0.00  0.00    +0.191 C 
ATOM     28  O   LIG    1        2.229  -0.621  -0.827  0.00  0.00    -0.292 OA
BRANCH  27  29
ATOM     29  C   LIG    1        2.007   1.626  -0.095  0.00  0.00    +0.249 C 
BRANCH  29  30
ATOM     30  O   LIG    1        1.509   2.079   1.151  0.00  0.00    -0.279 OA
BRANCH  30  31
ATOM     31  P   LIG    1        1.880   3.568   1.697  0.00  0.00    +0.473 P 
ATOM     32  O   LIG    1        1.321   3.907   3.033  0.00  0.00    -0.228 OA
BRANCH  31  33
ATOM     33  O   LIG    1        3.501   3.615   1.600  0.00  0.00    -0.303 OA
ATOM     34  H   LIG    1        3.967   3.833   2.430  0.00  0.00    +0.222 HD
ENDBRANCH  31  33
BRANCH  31  35
ATOM     35  O   LIG    1        1.408   4.541   0.485  0.00  0.00    -0.303 OA
ATOM     36  H   LIG    1        1.777   4.337  -0.396  0.00  0.00    +0.222 HD
ENDBRANCH  31  35
ENDBRANCH  30  31
ENDBRANCH  29  30
ENDBRANCH  27  29
ENDBRANCH  16  27
TORSDOF 8
