REMARK  Name = DB14883
REMARK                            x       y       z     vdW  Elec       q    Type
REMARK                         _______ _______ _______ _____ _____    ______ ____
ROOT
ATOM      1  C   LIG    1        6.845  -0.971  -0.010  0.00  0.00    -0.016 A 
ATOM      2  C   LIG    1        6.576  -1.963   0.942  0.00  0.00    +0.010 A 
ATOM      3  C   LIG    1        7.527  -2.406   1.862  0.00  0.00    +0.028 A 
ATOM      4  C   LIG    1        8.790  -1.815   1.795  0.00  0.00    +0.066 A 
ATOM      5  N   LIG    1        9.941  -2.005   2.528  0.00  0.00    -0.276 N 
ATOM      6  H   LIG    1       10.086  -2.644   3.296  0.00  0.00    +0.189 HD
ATOM      7  N   LIG    1       10.939  -1.210   2.108  0.00  0.00    -0.170 NA
ATOM      8  C   LIG    1       10.485  -0.489   1.109  0.00  0.00    +0.135 A 
ATOM      9  C   LIG    1        9.110  -0.814   0.849  0.00  0.00    +0.031 A 
ATOM     10  C   LIG    1        8.121  -0.392  -0.054  0.00  0.00    +0.020 A 
ENDROOT
BRANCH   8  11
ATOM     11  C   LIG    1       11.335   0.483   0.416  0.00  0.00    +0.160 A 
ATOM     12  N   LIG    1       10.942   1.220  -0.596  0.00  0.00    -0.225 NA
ATOM     13  C   LIG    1       12.041   1.965  -0.933  0.00  0.00    +0.108 A 
ATOM     14  C   LIG    1       12.213   2.920  -1.943  0.00  0.00    +0.140 A 
ATOM     15  N   LIG    1       13.398   3.554  -2.121  0.00  0.00    -0.260 NA
ATOM     16  C   LIG    1       14.433   3.251  -1.296  0.00  0.00    +0.121 A 
ATOM     17  C   LIG    1       14.388   2.319  -0.247  0.00  0.00    +0.026 A 
ATOM     18  C   LIG    1       13.146   1.678  -0.094  0.00  0.00    +0.077 A 
ATOM     19  N   LIG    1       12.651   0.716   0.757  0.00  0.00    -0.336 N 
ATOM     20  H   LIG    1       13.121   0.234   1.511  0.00  0.00    +0.167 HD
BRANCH  17  21
ATOM     21  C   LIG    1       15.565   2.038   0.620  0.00  0.00    -0.012 A 
ATOM     22  C   LIG    1       15.418   1.869   2.004  0.00  0.00    +0.047 A 
ATOM     23  C   LIG    1       16.522   1.604   2.815  0.00  0.00    +0.124 A 
ATOM     24  F   LIG    1       16.358   1.442   4.148  0.00  0.00    -0.205 F 
ATOM     25  C   LIG    1       17.793   1.507   2.252  0.00  0.00    +0.038 A 
ATOM     26  C   LIG    1       17.958   1.675   0.878  0.00  0.00    +0.003 A 
ATOM     27  C   LIG    1       16.851   1.939   0.070  0.00  0.00    +0.009 A 
ENDBRANCH  17  21
ENDBRANCH   8  11
BRANCH   1  32
ATOM     28  C   LIG    1        3.466  -0.029  -1.516  0.00  0.00    +0.052 A 
ATOM     29  C   LIG    1        3.884   0.235  -2.822  0.00  0.00    +0.134 A 
ATOM     30  N   LIG    1        5.174   0.138  -3.226  0.00  0.00    -0.261 NA
ATOM     31  C   LIG    1        6.096  -0.243  -2.307  0.00  0.00    +0.119 A 
ATOM     32  C   LIG    1        5.789  -0.540  -0.972  0.00  0.00    +0.002 A 
ATOM     33  C   LIG    1        4.445  -0.422  -0.585  0.00  0.00    +0.034 A 
BRANCH  28  35
ATOM     34  C   LIG    1        1.434   0.067  -0.071  0.00  0.00    +0.217 C 
ATOM     35  N   LIG    1        2.089   0.093  -1.252  0.00  0.00    -0.284 N 
ATOM     36  H   LIG    1        1.520   0.245  -2.072  0.00  0.00    +0.155 HD
ATOM     37  O   LIG    1        1.965  -0.034   1.035  0.00  0.00    -0.275 OA
BRANCH  34  38
ATOM     38  C   LIG    1       -0.096   0.173  -0.162  0.00  0.00    +0.099 C 
BRANCH  38  40
ATOM     39  C   LIG    1       -0.303   2.246   1.390  0.00  0.00    +0.008 C 
ATOM     40  C   LIG    1       -0.666   1.603   0.033  0.00  0.00    -0.008 C 
ATOM     41  C   LIG    1       -2.193   1.604  -0.166  0.00  0.00    +0.008 C 
ENDBRANCH  38  40
ENDBRANCH  34  38
ENDBRANCH  28  35
ENDBRANCH   1  32
TORSDOF 6
