REMARK  Name = DB14845
REMARK                            x       y       z     vdW  Elec       q    Type
REMARK                         _______ _______ _______ _____ _____    ______ ____
ROOT
ATOM      1  C   LIG    1       -1.404   3.325  -0.187  0.00  0.00    +0.242 A 
ATOM      2  N   LIG    1       -2.543   2.669  -0.003  0.00  0.00    -0.194 NA
ATOM      3  C   LIG    1       -2.132   1.394   0.195  0.00  0.00    +0.158 A 
ATOM      4  C   LIG    1       -2.828   0.202   0.461  0.00  0.00    +0.048 A 
ATOM      5  C   LIG    1       -2.096  -0.975   0.632  0.00  0.00    +0.006 A 
ATOM      6  C   LIG    1       -0.704  -0.982   0.538  0.00  0.00    +0.028 A 
ATOM      7  C   LIG    1       -0.001   0.196   0.265  0.00  0.00    +0.075 A 
ATOM      8  N   LIG    1       -0.739   1.352   0.102  0.00  0.00    -0.211 N 
ATOM      9  N   LIG    1       -0.296   2.610  -0.131  0.00  0.00    -0.128 NA
ENDROOT
BRANCH   7  10
ATOM     10  C   LIG    1        1.488   0.227   0.140  0.00  0.00    +0.000 A 
ATOM     11  C   LIG    1        2.280  -0.458   1.070  0.00  0.00    +0.010 A 
ATOM     12  C   LIG    1        3.668  -0.443   0.970  0.00  0.00    +0.005 A 
ATOM     13  C   LIG    1        4.285   0.255  -0.069  0.00  0.00    -0.033 A 
ATOM     14  C   LIG    1        3.507   0.922  -1.016  0.00  0.00    +0.005 A 
ATOM     15  C   LIG    1        2.120   0.904  -0.912  0.00  0.00    +0.010 A 
BRANCH  13  16
ATOM     16  C   LIG    1        5.806   0.284  -0.177  0.00  0.00    +0.119 C 
BRANCH  16  17
ATOM     17  N   LIG    1        6.446   0.944   0.968  0.00  0.00    -0.295 NA
ATOM     18  C   LIG    1        6.188   2.394   0.970  0.00  0.00    +0.107 C 
ATOM     19  C   LIG    1        6.633   3.092   2.266  0.00  0.00    +0.181 C 
ATOM     20  S   LIG    1        8.487   2.877   2.462  0.00  0.00    -0.029 S 
ATOM     21  O   LIG    1        9.168   3.462   1.301  0.00  0.00    -0.174 OA
ATOM     22  O   LIG    1        8.886   3.294   3.810  0.00  0.00    -0.174 OA
ATOM     23  C   LIG    1        8.555   1.005   2.342  0.00  0.00    +0.181 C 
ATOM     24  C   LIG    1        7.866   0.566   1.038  0.00  0.00    +0.107 C 
ENDBRANCH  16  17
ENDBRANCH  13  16
ENDBRANCH   7  10
BRANCH   1  27
ATOM     25  O   LIG    1       -3.476   5.342  -0.373  0.00  0.00    -0.275 OA
ATOM     26  C   LIG    1       -2.279   5.601  -0.507  0.00  0.00    +0.222 C 
ATOM     27  N   LIG    1       -1.285   4.686  -0.431  0.00  0.00    -0.253 N 
ATOM     28  H   LIG    1       -0.341   5.019  -0.556  0.00  0.00    +0.158 HD
BRANCH  26  29
ATOM     29  C   LIG    1       -1.890   7.063  -0.793  0.00  0.00    +0.075 C 
ATOM     30  C   LIG    1       -1.371   7.845   0.391  0.00  0.00    +0.013 C 
ATOM     31  C   LIG    1       -0.428   7.466  -0.739  0.00  0.00    +0.013 C 
ENDBRANCH  26  29
ENDBRANCH   1  27
TORSDOF 5
