REMARK  Name = DB14677
REMARK                            x       y       z     vdW  Elec       q    Type
REMARK                         _______ _______ _______ _____ _____    ______ ____
ROOT
ATOM      1  C   LIG    1       -2.541  -2.800   1.369  0.00  0.00    +0.003 C 
ATOM      2  C   LIG    1       -3.020  -1.559   2.133  0.00  0.00    +0.009 C 
ATOM      3  C   LIG    1       -2.767  -0.382   1.169  0.00  0.00    +0.057 C 
ATOM      4  C   LIG    1       -2.142  -0.991  -0.134  0.00  0.00    +0.176 C 
ATOM      5  C   LIG    1       -2.721  -2.460  -0.137  0.00  0.00    +0.018 C 
ATOM      6  C   LIG    1       -4.223  -2.482  -0.588  0.00  0.00    +0.016 C 
ATOM      7  C   LIG    1       -1.919  -3.537  -0.933  0.00  0.00    +0.011 C 
ATOM      8  C   LIG    1       -2.372  -4.979  -0.585  0.00  0.00    +0.005 C 
ATOM      9  C   LIG    1       -2.280  -5.285   0.942  0.00  0.00    -0.000 C 
ATOM     10  C   LIG    1       -2.756  -6.726   1.320  0.00  0.00    +0.019 C 
ATOM     11  C   LIG    1       -2.029  -7.906   0.607  0.00  0.00    +0.016 C 
ATOM     12  C   LIG    1       -0.716  -8.360   1.274  0.00  0.00    +0.079 C 
ATOM     13  C   LIG    1       -0.923  -8.658   2.764  0.00  0.00    +0.156 C 
ATOM     14  O   LIG    1       -0.280  -9.522   3.355  0.00  0.00    -0.293 OA
ATOM     15  C   LIG    1       -1.829  -7.760   3.465  0.00  0.00    +0.045 C 
ATOM     16  C   LIG    1       -2.657  -6.883   2.853  0.00  0.00    -0.063 C 
ATOM     17  C   LIG    1       -3.513  -5.886   3.624  0.00  0.00    +0.031 C 
ATOM     18  C   LIG    1       -3.021  -4.472   3.267  0.00  0.00    +0.008 C 
ATOM     19  C   LIG    1       -3.085  -4.206   1.746  0.00  0.00    -0.003 C 
ENDROOT
BRANCH   4  20
ATOM     20  C   LIG    1       -2.469  -0.180  -1.434  0.00  0.00    +0.174 C 
ATOM     21  O   LIG    1       -3.210   0.803  -1.418  0.00  0.00    -0.293 OA
ATOM     22  C   LIG    1       -1.845  -0.629  -2.756  0.00  0.00    +0.090 C 
ENDBRANCH   4  20
BRANCH   4  23
ATOM     23  O   LIG    1       -0.692  -1.064  -0.044  0.00  0.00    -0.450 OA
BRANCH  23  24
ATOM     24  C   LIG    1        0.170  -0.013   0.125  0.00  0.00    +0.308 C 
ATOM     25  O   LIG    1       -0.135   1.175   0.234  0.00  0.00    -0.251 OA
BRANCH  24  26
ATOM     26  C   LIG    1        1.633  -0.462   0.162  0.00  0.00    +0.120 C 
BRANCH  26  27
ATOM     27  C   LIG    1        2.177  -0.692   1.589  0.00  0.00    +0.011 C 
BRANCH  27  28
ATOM     28  C   LIG    1        1.530  -1.847   2.385  0.00  0.00    +0.000 C 
BRANCH  28  29
ATOM     29  C   LIG    1        1.694  -3.232   1.730  0.00  0.00    -0.003 C 
ATOM     30  C   LIG    1        1.230  -4.381   2.635  0.00  0.00    +0.004 C 
ENDBRANCH  28  29
ENDBRANCH  27  28
ENDBRANCH  26  27
ENDBRANCH  24  26
ENDBRANCH  23  24
ENDBRANCH   4  23
TORSDOF 7
