REMARK  Name = DB14872
REMARK                            x       y       z     vdW  Elec       q    Type
REMARK                         _______ _______ _______ _____ _____    ______ ____
ROOT
ATOM      1  N   LIG    1        1.527   0.006  -0.068  0.00  0.00    +0.386 N 
ATOM      2  H   LIG    1        1.854   0.507   0.747  0.00  0.00    -0.081 HD
ATOM      3  C   LIG    1        2.079  -1.458   0.038  0.00  0.00    -0.011 C 
ATOM      4  C   LIG    1        3.641  -1.447   0.046  0.00  0.00    +0.134 C 
ATOM      5  C   LIG    1        4.218  -0.706  -1.189  0.00  0.00    +0.168 C 
ATOM      6  C   LIG    1        3.646   0.728  -1.256  0.00  0.00    +0.129 C 
ATOM      7  C   LIG    1        2.106   0.695  -1.335  0.00  0.00    -0.044 C 
ENDROOT
BRANCH   4   8
ATOM      8  O   LIG    1        4.164  -0.907   1.252  0.00  0.00    -0.391 OA
ATOM      9  H   LIG    1        3.935  -1.493   1.978  0.00  0.00    +0.210 HD
ENDBRANCH   4   8
BRANCH   5  10
ATOM     10  O   LIG    1        5.637  -0.729  -1.201  0.00  0.00    -0.387 OA
ATOM     11  H   LIG    1        5.947  -0.172  -1.920  0.00  0.00    +0.210 HD
ENDBRANCH   5  10
BRANCH   6  12
ATOM     12  O   LIG    1        4.165   1.463  -2.349  0.00  0.00    -0.391 OA
ATOM     13  H   LIG    1        3.999   0.975  -3.159  0.00  0.00    +0.210 HD
ENDBRANCH   6  12
BRANCH   1  14
ATOM     14  C   LIG    1       -0.028   0.046  -0.082  0.00  0.00    -0.078 C 
BRANCH  14  15
ATOM     15  C   LIG    1       -0.587   1.483  -0.113  0.00  0.00    -0.019 C 
BRANCH  15  17
ATOM     16  C   LIG    1       -2.671   2.952   0.129  0.00  0.00    +0.004 C 
ATOM     17  C   LIG    1       -2.098   1.529   0.171  0.00  0.00    -0.005 C 
ENDBRANCH  15  17
ENDBRANCH  14  15
ENDBRANCH   1  14
BRANCH   3  18
ATOM     18  C   LIG    1        1.459  -2.231   1.241  0.00  0.00    +0.143 C 
BRANCH  18  19
ATOM     19  O   LIG    1        1.545  -1.541   2.474  0.00  0.00    -0.397 OA
ATOM     20  H   LIG    1        1.167  -2.092   3.164  0.00  0.00    +0.209 HD
ENDBRANCH  18  19
ENDBRANCH   3  18
TORSDOF 8
