REMARK  Name = DB14033
REMARK                            x       y       z     vdW  Elec       q    Type
REMARK                         _______ _______ _______ _____ _____    ______ ____
ROOT
ATOM      1  S   LIG    1        2.222  -0.051   1.496  0.00  0.00    +0.083 S 
ATOM      2  O   LIG    1        3.616  -0.467   1.295  0.00  0.00    -0.149 OA
ATOM      3  O   LIG    1        1.349  -0.786   2.420  0.00  0.00    -0.149 OA
ENDROOT
BRANCH   1   4
ATOM      4  C   LIG    1        2.230   1.664   2.014  0.00  0.00    +0.109 A 
ATOM      5  C   LIG    1        1.098   2.202   2.630  0.00  0.00    +0.030 A 
ATOM      6  C   LIG    1        1.087   3.542   3.007  0.00  0.00    +0.024 A 
ATOM      7  C   LIG    1        2.204   4.340   2.761  0.00  0.00    +0.025 A 
ATOM      8  C   LIG    1        3.332   3.806   2.138  0.00  0.00    +0.024 A 
ATOM      9  C   LIG    1        3.344   2.466   1.760  0.00  0.00    +0.030 A 
BRANCH   7  10
ATOM     10  N   LIG    1        2.193   5.682   3.138  0.00  0.00    -0.358 N 
ATOM     11  H   LIG    1        1.372   6.066   3.583  0.00  0.00    +0.142 HD
ATOM     12  H   LIG    1        3.005   6.255   2.958  0.00  0.00    +0.142 HD
ENDBRANCH   7  10
ENDBRANCH   1   4
BRANCH   1  13
ATOM     13  N   LIG    1        1.415  -0.035  -0.097  0.00  0.00    -0.104 N 
ATOM     14  C   LIG    1        2.161   0.237  -1.269  0.00  0.00    +0.239 C 
ATOM     15  C   LIG    1        1.749  -0.485  -2.555  0.00  0.00    +0.111 C 
ATOM     16  O   LIG    1        3.138   0.986  -1.278  0.00  0.00    -0.274 OA
BRANCH  13  17
ATOM     17  C   LIG    1        0.044   0.059  -0.139  0.00  0.00    +0.249 A 
ATOM     18  O   LIG    1       -0.471   1.299  -0.324  0.00  0.00    -0.337 OA
ATOM     19  N   LIG    1       -1.858   1.202  -0.283  0.00  0.00    -0.081 NA
ATOM     20  C   LIG    1       -2.134  -0.067  -0.072  0.00  0.00    +0.085 A 
ATOM     21  C   LIG    1       -3.582  -0.488   0.047  0.00  0.00    +0.069 C 
ATOM     22  C   LIG    1       -0.980  -0.860   0.003  0.00  0.00    +0.036 A 
ATOM     23  C   LIG    1       -0.872  -2.343   0.282  0.00  0.00    +0.051 C 
ENDBRANCH  13  17
ENDBRANCH   1  13
TORSDOF 4
