REMARK  Name = DB14916
REMARK                            x       y       z     vdW  Elec       q    Type
REMARK                         _______ _______ _______ _____ _____    ______ ____
ROOT
ATOM      1  N   LIG    1        1.613   0.628  -0.601  0.00  0.00    -0.266 N 
ATOM      2  H   LIG    1        2.107  -0.014  -1.203  0.00  0.00    +0.157 HD
ATOM      3  C   LIG    1        2.358   1.309   0.301  0.00  0.00    +0.252 C 
ATOM      4  O   LIG    1        1.905   2.073   1.155  0.00  0.00    -0.270 OA
ENDROOT
BRANCH   3   5
ATOM      5  C   LIG    1        3.846   1.070   0.215  0.00  0.00    +0.074 A 
ATOM      6  C   LIG    1        4.616   0.912   1.378  0.00  0.00    +0.136 A 
ATOM      7  F   LIG    1        4.049   0.963   2.608  0.00  0.00    -0.205 F 
ATOM      8  C   LIG    1        5.990   0.695   1.288  0.00  0.00    +0.044 A 
ATOM      9  C   LIG    1        6.629   0.622   0.049  0.00  0.00    -0.024 A 
ATOM     10  C   LIG    1        8.143   0.445   0.029  0.00  0.00    +0.046 C 
ATOM     11  C   LIG    1        5.864   0.764  -1.126  0.00  0.00    +0.051 A 
ATOM     12  C   LIG    1        4.485   0.990  -1.032  0.00  0.00    +0.042 A 
BRANCH  11  13
ATOM     13  N   LIG    1        6.440   0.691  -2.413  0.00  0.00    -0.305 N 
ATOM     14  C   LIG    1        7.297  -0.256  -2.918  0.00  0.00    +0.116 A 
ATOM     15  C   LIG    1        7.575   0.107  -4.230  0.00  0.00    +0.062 A 
ATOM     16  N   LIG    1        6.919   1.209  -4.551  0.00  0.00    -0.240 NA
ATOM     17  C   LIG    1        6.246   1.542  -3.475  0.00  0.00    +0.204 A 
BRANCH  15  18
ATOM     18  C   LIG    1        8.470  -0.570  -5.247  0.00  0.00    +0.039 C 
ATOM     19  C   LIG    1        8.726  -2.055  -5.194  0.00  0.00    +0.010 C 
ATOM     20  C   LIG    1        7.875  -1.462  -6.305  0.00  0.00    +0.010 C 
ENDBRANCH  15  18
ENDBRANCH  11  13
ENDBRANCH   3   5
BRANCH   1  23
ATOM     21  C   LIG    1       -1.925   1.516  -0.343  0.00  0.00    +0.110 A 
ATOM     22  N   LIG    1       -0.577   1.568  -0.166  0.00  0.00    -0.229 NA
ATOM     23  C   LIG    1        0.214   0.622  -0.750  0.00  0.00    +0.126 A 
ATOM     24  C   LIG    1       -0.324  -0.391  -1.549  0.00  0.00    +0.044 A 
ATOM     25  C   LIG    1       -1.705  -0.441  -1.735  0.00  0.00    +0.006 A 
ATOM     26  C   LIG    1       -2.517   0.517  -1.128  0.00  0.00    +0.031 A 
BRANCH  21  28
ATOM     27  N   LIG    1       -2.416   3.414   1.381  0.00  0.00    -0.310 N 
ATOM     28  C   LIG    1       -2.758   2.583   0.318  0.00  0.00    +0.183 A 
ATOM     29  N   LIG    1       -3.975   2.870  -0.095  0.00  0.00    -0.128 NA
ATOM     30  N   LIG    1       -4.463   3.924   0.665  0.00  0.00    -0.137 NA
ATOM     31  C   LIG    1       -3.521   4.226   1.515  0.00  0.00    +0.225 A 
BRANCH  27  33
ATOM     32  C   LIG    1       -1.471   3.757   3.664  0.00  0.00    +0.030 C 
ATOM     33  C   LIG    1       -1.179   3.479   2.174  0.00  0.00    +0.084 C 
ATOM     34  C   LIG    1       -0.230   4.526   1.561  0.00  0.00    +0.030 C 
ENDBRANCH  27  33
ENDBRANCH  21  28
ENDBRANCH   1  23
TORSDOF 6
