REMARK  Name = DB14631
REMARK                            x       y       z     vdW  Elec       q    Type
REMARK                         _______ _______ _______ _____ _____    ______ ____
ROOT
ATOM      1  C   LIG    1       -0.599  -0.728   1.072  0.00  0.00    +0.009 C 
ATOM      2  C   LIG    1        0.441  -1.901   1.161  0.00  0.00    +0.015 C 
ATOM      3  C   LIG    1       -0.709   0.031   2.433  0.00  0.00    +0.041 C 
ATOM      4  C   LIG    1       -1.281  -0.834   3.592  0.00  0.00    +0.120 C 
ATOM      5  C   LIG    1       -2.650  -1.508   3.202  0.00  0.00    +0.035 C 
ATOM      6  C   LIG    1       -2.609  -2.208   1.795  0.00  0.00    -0.000 C 
ATOM      7  C   LIG    1       -4.030  -2.667   1.392  0.00  0.00    +0.008 C 
ATOM      8  C   LIG    1       -4.674  -3.589   2.439  0.00  0.00    +0.032 C 
ATOM      9  C   LIG    1       -4.705  -2.858   3.781  0.00  0.00    -0.056 C 
ATOM     10  C   LIG    1       -5.866  -2.595   4.427  0.00  0.00    +0.051 C 
ATOM     11  C   LIG    1       -5.980  -1.873   5.694  0.00  0.00    +0.179 C 
ATOM     12  O   LIG    1       -7.053  -1.665   6.257  0.00  0.00    -0.288 OA
ATOM     13  C   LIG    1       -4.698  -1.416   6.223  0.00  0.00    +0.047 C 
ATOM     14  C   LIG    1       -3.513  -1.648   5.624  0.00  0.00    -0.012 C 
ATOM     15  C   LIG    1       -3.309  -2.421   4.311  0.00  0.00    +0.013 C 
ATOM     16  C   LIG    1       -2.508  -3.704   4.668  0.00  0.00    +0.020 C 
ATOM     17  C   LIG    1       -2.029  -1.225   0.739  0.00  0.00    +0.002 C 
ATOM     18  C   LIG    1       -1.981  -1.627  -0.743  0.00  0.00    +0.008 C 
ATOM     19  C   LIG    1       -0.906  -0.709  -1.366  0.00  0.00    +0.043 C 
ATOM     20  C   LIG    1       -0.349   0.170  -0.202  0.00  0.00    +0.132 C 
ENDROOT
BRANCH   4  21
ATOM     21  O   LIG    1       -0.301  -1.727   4.078  0.00  0.00    -0.391 OA
ATOM     22  H   LIG    1       -0.656  -2.180   4.846  0.00  0.00    +0.210 HD
ENDBRANCH   4  21
BRANCH  20  23
ATOM     23  O   LIG    1       -1.056   1.408  -0.170  0.00  0.00    -0.380 OA
ATOM     24  H   LIG    1       -1.995   1.219  -0.115  0.00  0.00    +0.211 HD
ENDBRANCH  20  23
BRANCH  20  25
ATOM     25  C   LIG    1        1.155   0.550  -0.393  0.00  0.00    +0.191 C 
ATOM     26  O   LIG    1        1.906  -0.133  -1.092  0.00  0.00    -0.292 OA
BRANCH  25  27
ATOM     27  C   LIG    1        1.686   1.822   0.291  0.00  0.00    +0.249 C 
BRANCH  27  28
ATOM     28  O   LIG    1        3.087   1.937   0.119  0.00  0.00    -0.279 OA
BRANCH  28  29
ATOM     29  P   LIG    1        3.862   3.212   0.771  0.00  0.00    +0.473 P 
ATOM     30  O   LIG    1        3.653   3.412   2.231  0.00  0.00    -0.228 OA
BRANCH  29  31
ATOM     31  O   LIG    1        3.394   4.447  -0.175  0.00  0.00    -0.303 OA
ATOM     32  H   LIG    1        3.533   4.324  -1.133  0.00  0.00    +0.222 HD
ENDBRANCH  29  31
BRANCH  29  33
ATOM     33  O   LIG    1        5.404   2.973   0.323  0.00  0.00    -0.303 OA
ATOM     34  H   LIG    1        6.056   2.945   1.050  0.00  0.00    +0.222 HD
ENDBRANCH  29  33
ENDBRANCH  28  29
ENDBRANCH  27  28
ENDBRANCH  25  27
ENDBRANCH  20  25
TORSDOF 8
