REMARK  Name = DB14924
REMARK                            x       y       z     vdW  Elec       q    Type
REMARK                         _______ _______ _______ _____ _____    ______ ____
ROOT
ATOM      1  N   LIG    1        1.434   0.190   0.090  0.00  0.00    -0.324 N 
ATOM      2  H   LIG    1        1.973  -0.622   0.354  0.00  0.00    +0.148 HD
ENDROOT
BRANCH   1   3
ATOM      3  C   LIG    1        2.100   1.227  -0.587  0.00  0.00    +0.131 A 
ATOM      4  C   LIG    1        3.506   1.198  -0.675  0.00  0.00    +0.058 A 
ATOM      5  C   LIG    1        4.573   0.343  -0.239  0.00  0.00    +0.032 A 
ATOM      6  C   LIG    1        5.750   0.919  -0.683  0.00  0.00    +0.085 A 
ATOM      7  N   LIG    1        5.468   2.079  -1.365  0.00  0.00    -0.346 N 
ATOM      8  H   LIG    1        6.183   2.661  -1.776  0.00  0.00    +0.167 HD
ATOM      9  C   LIG    1        4.105   2.282  -1.380  0.00  0.00    +0.143 A 
ATOM     10  N   LIG    1        3.448   3.300  -1.947  0.00  0.00    -0.218 NA
ATOM     11  C   LIG    1        2.101   3.216  -1.792  0.00  0.00    +0.225 A 
ATOM     12  N   LIG    1        1.396   2.249  -1.152  0.00  0.00    -0.220 NA
ENDBRANCH   1   3
BRANCH   1  19
ATOM     13  C   LIG    1       -2.250  -3.106  -0.045  0.00  0.00    +0.028 C 
ATOM     14  C   LIG    1       -2.493  -1.588   0.024  0.00  0.00    +0.073 C 
ATOM     15  N   LIG    1       -1.933  -0.821  -1.125  0.00  0.00    -0.293 N 
ATOM     16  C   LIG    1       -2.667  -0.034  -1.968  0.00  0.00    +0.239 C 
ATOM     17  O   LIG    1       -2.139   0.783  -2.730  0.00  0.00    -0.271 OA
ATOM     18  C   LIG    1       -0.457  -0.724  -1.153  0.00  0.00    +0.130 C 
ATOM     19  C   LIG    1       -0.023   0.069   0.097  0.00  0.00    +0.089 C 
ATOM     20  C   LIG    1       -0.473  -0.651   1.379  0.00  0.00    +0.025 C 
ATOM     21  C   LIG    1       -1.989  -0.925   1.339  0.00  0.00    +0.024 C 
BRANCH  16  22
ATOM     22  C   LIG    1       -4.105  -0.223  -1.992  0.00  0.00    +0.060 C 
ATOM     23  C   LIG    1       -4.956   0.750  -2.367  0.00  0.00    +0.013 C 
ENDBRANCH  16  22
ENDBRANCH   1  19
TORSDOF 3
