REMARK  Name = DB14906
REMARK                            x       y       z     vdW  Elec       q    Type
REMARK                         _______ _______ _______ _____ _____    ______ ____
ROOT
ATOM      1  C   LIG    1        1.731  -0.420  -2.657  0.00  0.00    +0.245 C 
ENDROOT
BRANCH   1   2
ATOM      2  C   LIG    1        2.117  -1.576  -3.594  0.00  0.00    +0.265 C 
ATOM      3  C   LIG    1        1.648  -1.449  -5.044  0.00  0.00    +0.217 C 
ATOM      4  C   LIG    1        1.698  -2.895  -5.564  0.00  0.00    +0.139 C 
ATOM      5  C   LIG    1        0.731  -3.164  -6.742  0.00  0.00    +0.049 C 
ATOM      6  C   LIG    1        1.388  -3.687  -4.258  0.00  0.00    +0.261 C 
ATOM      7  O   LIG    1        1.447  -2.762  -3.204  0.00  0.00    -0.314 OA
ATOM      8  F   LIG    1        3.443  -1.740  -3.529  0.00  0.00    -0.205 F 
BRANCH   6   9
ATOM      9  N   LIG    1        0.144  -4.451  -4.182  0.00  0.00    -0.271 N 
ATOM     10  C   LIG    1        0.149  -5.774  -4.588  0.00  0.00    +0.331 A 
ATOM     11  O   LIG    1        1.129  -6.409  -4.979  0.00  0.00    -0.246 OA
ATOM     12  N   LIG    1       -1.085  -6.374  -4.538  0.00  0.00    -0.275 N 
ATOM     13  H   LIG    1       -1.100  -7.344  -4.818  0.00  0.00    +0.173 HD
ATOM     14  C   LIG    1       -2.297  -5.860  -4.173  0.00  0.00    +0.254 A 
ATOM     15  O   LIG    1       -3.331  -6.523  -4.164  0.00  0.00    -0.268 OA
ATOM     16  C   LIG    1       -2.224  -4.460  -3.798  0.00  0.00    +0.088 A 
ATOM     17  C   LIG    1       -1.032  -3.832  -3.818  0.00  0.00    +0.098 A 
ENDBRANCH   6   9
BRANCH   3  18
ATOM     18  O   LIG    1        2.390  -0.518  -5.814  0.00  0.00    -0.383 OA
ATOM     19  H   LIG    1        3.295  -0.832  -5.883  0.00  0.00    +0.210 HD
ENDBRANCH   3  18
BRANCH   4  20
ATOM     20  O   LIG    1        2.982  -3.289  -6.031  0.00  0.00    -0.382 OA
ATOM     21  H   LIG    1        3.615  -3.173  -5.319  0.00  0.00    +0.210 HD
ENDBRANCH   4  20
ENDBRANCH   1   2
BRANCH   1  22
ATOM     22  O   LIG    1        2.146  -0.727  -1.339  0.00  0.00    -0.281 OA
BRANCH  22  23
ATOM     23  P   LIG    1        1.860   0.307  -0.110  0.00  0.00    +0.462 P 
ATOM     24  O   LIG    1        2.493   1.646  -0.266  0.00  0.00    -0.228 OA
BRANCH  23  25
ATOM     25  N   LIG    1        0.167   0.249   0.068  0.00  0.00    -0.199 NA
ATOM     26  H   LIG    1       -0.221  -0.502   0.639  0.00  0.00    +0.135 HD
BRANCH  25  27
ATOM     27  C   LIG    1       -0.726   1.402  -0.104  0.00  0.00    +0.171 C 
ATOM     28  C   LIG    1       -0.603   2.111  -1.473  0.00  0.00    +0.036 C 
BRANCH  27  29
ATOM     29  C   LIG    1       -2.166   0.998   0.131  0.00  0.00    +0.325 C 
ATOM     30  O   LIG    1       -2.869   1.531   0.992  0.00  0.00    -0.249 OA
BRANCH  29  31
ATOM     31  O   LIG    1       -2.570   0.004  -0.710  0.00  0.00    -0.461 OA
BRANCH  31  33
ATOM     32  C   LIG    1       -3.847  -1.907  -1.353  0.00  0.00    +0.052 C 
ATOM     33  C   LIG    1       -3.893  -0.527  -0.680  0.00  0.00    +0.170 C 
ATOM     34  C   LIG    1       -4.886   0.419  -1.385  0.00  0.00    +0.052 C 
ENDBRANCH  31  33
ENDBRANCH  29  31
ENDBRANCH  27  29
ENDBRANCH  25  27
ENDBRANCH  23  25
BRANCH  23  35
ATOM     35  O   LIG    1        2.383  -0.533   1.187  0.00  0.00    -0.413 OA
BRANCH  35  36
ATOM     36  C   LIG    1        3.490  -1.342   1.193  0.00  0.00    +0.131 A 
ATOM     37  C   LIG    1        4.720  -0.893   0.704  0.00  0.00    +0.046 A 
ATOM     38  C   LIG    1        5.827  -1.737   0.730  0.00  0.00    +0.004 A 
ATOM     39  C   LIG    1        5.702  -3.024   1.250  0.00  0.00    +0.000 A 
ATOM     40  C   LIG    1        4.480  -3.472   1.750  0.00  0.00    +0.004 A 
ATOM     41  C   LIG    1        3.374  -2.627   1.725  0.00  0.00    +0.046 A 
ENDBRANCH  35  36
ENDBRANCH  23  35
ENDBRANCH  22  23
ENDBRANCH   1  22
TORSDOF 13
