REMARK  Name = DB14828
REMARK                            x       y       z     vdW  Elec       q    Type
REMARK                         _______ _______ _______ _____ _____    ______ ____
ROOT
ATOM      1  N   LIG    1        5.457   0.416   0.109  0.00  0.00    -0.299 N 
ATOM      2  H   LIG    1        5.952  -0.065  -0.628  0.00  0.00    +0.154 HD
ENDROOT
BRANCH   1   3
ATOM      3  C   LIG    1        6.305   1.065   1.022  0.00  0.00    +0.124 A 
ATOM      4  N   LIG    1        5.787   1.646   2.136  0.00  0.00    -0.230 NA
ATOM      5  C   LIG    1        6.619   2.265   3.023  0.00  0.00    +0.091 A 
ATOM      6  C   LIG    1        6.079   2.882   4.188  0.00  0.00    +0.067 A 
ATOM      7 CL   LIG    1        4.378   2.869   4.515  0.00  0.00    -0.081 Cl
ATOM      8  C   LIG    1        6.930   3.513   5.093  0.00  0.00    +0.022 A 
ATOM      9  C   LIG    1        8.304   3.551   4.878  0.00  0.00    +0.002 A 
ATOM     10  C   LIG    1        8.861   2.958   3.749  0.00  0.00    +0.010 A 
ATOM     11  C   LIG    1        8.031   2.307   2.806  0.00  0.00    +0.002 A 
ATOM     12  C   LIG    1        8.546   1.688   1.641  0.00  0.00    +0.013 A 
ATOM     13  C   LIG    1        7.672   1.066   0.753  0.00  0.00    +0.044 A 
ENDBRANCH   1   3
BRANCH   1  17
ATOM     14  C   LIG    1        1.286  -0.026  -0.288  0.00  0.00    +0.130 A 
ATOM     15  C   LIG    1        1.797   1.046   0.459  0.00  0.00    +0.048 A 
ATOM     16  C   LIG    1        3.172   1.211   0.605  0.00  0.00    +0.027 A 
ATOM     17  C   LIG    1        4.059   0.302   0.014  0.00  0.00    +0.033 A 
ATOM     18  C   LIG    1        3.550  -0.757  -0.738  0.00  0.00    +0.027 A 
ATOM     19  C   LIG    1        2.175  -0.921  -0.883  0.00  0.00    +0.048 A 
BRANCH  14  20
ATOM     20  O   LIG    1       -0.059  -0.274  -0.492  0.00  0.00    -0.406 OA
BRANCH  20  22
ATOM     21  F   LIG    1       -2.239   0.134  -0.330  0.00  0.00    -0.133 F 
ATOM     22  C   LIG    1       -1.050   0.608   0.038  0.00  0.00    +0.575 C 
ATOM     23  F   LIG    1       -1.023   0.636   1.372  0.00  0.00    -0.133 F 
ATOM     24  F   LIG    1       -0.934   1.839  -0.464  0.00  0.00    -0.133 F 
ENDBRANCH  20  22
ENDBRANCH  14  20
ENDBRANCH   1  17
TORSDOF 4
