REMARK  Name = DB14821
REMARK                            x       y       z     vdW  Elec       q    Type
REMARK                         _______ _______ _______ _____ _____    ______ ____
ROOT
ATOM      1  C   LIG    1       -3.443  -2.426  -0.903  0.00  0.00    +0.137 A 
ATOM      2  C   LIG    1       -4.838  -2.474  -0.879  0.00  0.00    +0.046 A 
ATOM      3  C   LIG    1       -5.579  -1.502  -0.208  0.00  0.00    +0.058 A 
ATOM      4  C   LIG    1       -4.904  -0.474   0.451  0.00  0.00    +0.027 A 
ATOM      5  C   LIG    1       -3.500  -0.388   0.442  0.00  0.00    +0.058 A 
ATOM      6  C   LIG    1       -2.870   0.790   1.195  0.00  0.00    +0.281 A 
ATOM      7  O   LIG    1       -3.608   1.584   1.781  0.00  0.00    -0.265 OA
ATOM      8  N   LIG    1       -1.487   0.939   1.200  0.00  0.00    -0.187 NA
ATOM      9  C   LIG    1       -0.647   0.195   0.597  0.00  0.00    +0.165 A 
ATOM     10  S   LIG    1       -0.996  -1.294  -0.333  0.00  0.00    -0.051 S 
ATOM     11  C   LIG    1       -2.764  -1.376  -0.251  0.00  0.00    +0.058 A 
ENDROOT
BRANCH   9  12
ATOM     12  N   LIG    1        0.729   0.408   0.748  0.00  0.00    -0.313 N 
ATOM     13  C   LIG    1        1.282   1.184   1.873  0.00  0.00    +0.088 C 
ATOM     14  C   LIG    1        1.389   2.684   1.511  0.00  0.00    -0.060 C 
ATOM     15  N   LIG    1        2.227   2.867   0.226  0.00  0.00    +0.382 N 
ATOM     16  H   LIG    1        3.168   2.567   0.438  0.00  0.00    -0.082 HD
ATOM     17  C   LIG    1        1.722   1.956  -0.916  0.00  0.00    -0.060 C 
ATOM     18  C   LIG    1        1.616   0.493  -0.425  0.00  0.00    +0.088 C 
BRANCH  15  19
ATOM     19  C   LIG    1        2.277   4.341  -0.250  0.00  0.00    -0.075 C 
BRANCH  19  20
ATOM     20  C   LIG    1        3.021   5.261   0.757  0.00  0.00    -0.028 C 
ATOM     21  C   LIG    1        3.951   6.258   0.025  0.00  0.00    +0.002 C 
ATOM     22  C   LIG    1        4.755   7.117   1.024  0.00  0.00    +0.000 C 
ATOM     23  C   LIG    1        3.825   7.871   1.999  0.00  0.00    +0.000 C 
ATOM     24  C   LIG    1        2.790   6.939   2.669  0.00  0.00    +0.000 C 
ATOM     25  C   LIG    1        2.039   6.086   1.627  0.00  0.00    +0.002 C 
ENDBRANCH  19  20
ENDBRANCH  15  19
ENDBRANCH   9  12
BRANCH   3  26
ATOM     26  C   LIG    1       -7.106  -1.569  -0.167  0.00  0.00    +0.418 C 
ATOM     27  F   LIG    1       -7.601  -0.737  -1.083  0.00  0.00    -0.166 F 
ATOM     28  F   LIG    1       -7.566  -1.205   1.031  0.00  0.00    -0.166 F 
ATOM     29  F   LIG    1       -7.559  -2.798  -0.423  0.00  0.00    -0.166 F 
ENDBRANCH   3  26
BRANCH   1  30
ATOM     30  N   LIG    1       -2.728  -3.494  -1.626  0.00  0.00    +0.007 N 
ATOM     31  O   LIG    1       -2.988  -3.649  -2.815  0.00  0.00    -0.130 OA
BRANCH  30  32
ATOM     32  O   LIG    1       -1.937  -4.189  -0.997  0.00  0.00    -0.396 OA
ATOM     33  H   LIG    1       -1.468  -4.876  -1.430  0.00  0.00    +0.329 HD
ENDBRANCH  30  32
ENDBRANCH   1  30
TORSDOF 6
