REMARK  Name = DB14011
REMARK                            x       y       z     vdW  Elec       q    Type
REMARK                         _______ _______ _______ _____ _____    ______ ____
ROOT
ATOM      1  C   LIG    1        1.552  -0.010   0.003  0.00  0.00    -0.040 A 
ATOM      2  C   LIG    1        2.280  -0.196   1.176  0.00  0.00    +0.049 A 
ATOM      3  C   LIG    1        3.674  -0.213   1.141  0.00  0.00    +0.129 A 
ATOM      4  O   LIG    1        4.280  -0.406   2.370  0.00  0.00    -0.486 OA
ATOM      5  C   LIG    1        5.639   0.035   2.528  0.00  0.00    +0.109 C 
ATOM      6  C   LIG    1        6.443  -0.594   1.348  0.00  0.00    +0.044 C 
ATOM      7  C   LIG    1        5.925  -0.086  -0.028  0.00  0.00    +0.056 C 
ATOM      8  C   LIG    1        6.653  -0.879  -1.122  0.00  0.00    -0.019 C 
ATOM      9  C   LIG    1        7.889  -1.414  -0.983  0.00  0.00    -0.076 C 
ATOM     10  C   LIG    1        8.656  -1.354   0.343  0.00  0.00    +0.030 C 
ATOM     11  C   LIG    1        8.558  -2.176  -2.113  0.00  0.00    +0.039 C 
ATOM     12  C   LIG    1        7.979  -0.425   1.379  0.00  0.00    +0.012 C 
ATOM     13  C   LIG    1        5.694   1.585   2.550  0.00  0.00    +0.055 C 
ATOM     14  C   LIG    1        6.064  -0.591   3.873  0.00  0.00    +0.055 C 
ATOM     15  C   LIG    1        4.386  -0.079  -0.070  0.00  0.00    +0.043 A 
ATOM     16  C   LIG    1        3.628   0.160  -1.235  0.00  0.00    +0.124 A 
ATOM     17  C   LIG    1        2.233   0.176  -1.199  0.00  0.00    +0.049 A 
ENDROOT
BRANCH  16  18
ATOM     18  O   LIG    1        4.228   0.422  -2.440  0.00  0.00    -0.506 OA
ATOM     19  H   LIG    1        3.594   0.583  -3.143  0.00  0.00    +0.292 HD
ENDBRANCH  16  18
BRANCH   1  20
ATOM     20  C   LIG    1        0.030   0.011   0.032  0.00  0.00    +0.035 C 
BRANCH  20  21
ATOM     21  C   LIG    1       -0.545   1.440   0.045  0.00  0.00    +0.005 C 
BRANCH  21  22
ATOM     22  C   LIG    1       -2.084   1.466   0.049  0.00  0.00    +0.000 C 
BRANCH  22  24
ATOM     23  C   LIG    1       -4.192   2.923   0.030  0.00  0.00    +0.004 C 
ATOM     24  C   LIG    1       -2.658   2.893   0.031  0.00  0.00    -0.003 C 
ENDBRANCH  22  24
ENDBRANCH  21  22
ENDBRANCH  20  21
ENDBRANCH   1  20
TORSDOF 5
