REMARK  Name = DB14774
REMARK                            x       y       z     vdW  Elec       q    Type
REMARK                         _______ _______ _______ _____ _____    ______ ____
ROOT
ATOM      1  C   LIG    1        1.363   0.146   0.276  0.00  0.00    +0.187 A 
ATOM      2  C   LIG    1        2.025  -1.155   0.066  0.00  0.00    +0.251 A 
ATOM      3  O   LIG    1        1.424  -2.228  -0.023  0.00  0.00    -0.282 OA
ATOM      4  C   LIG    1        3.506  -1.056  -0.053  0.00  0.00    +0.160 A 
ATOM      5  N   LIG    1        4.164   0.054  -0.004  0.00  0.00    -0.161 NA
ATOM      6  N   LIG    1        3.468   1.305   0.176  0.00  0.00    -0.233 N 
ATOM      7  C   LIG    1        2.064   1.309   0.322  0.00  0.00    +0.162 A 
ENDROOT
BRANCH   6   8
ATOM      8  C   LIG    1        4.239   2.452   0.107  0.00  0.00    +0.101 A 
ATOM      9  C   LIG    1        4.174   3.301  -1.007  0.00  0.00    +0.151 A 
ATOM     10  F   LIG    1        3.342   3.023  -2.039  0.00  0.00    -0.203 F 
ATOM     11  C   LIG    1        4.969   4.446  -1.067  0.00  0.00    +0.068 A 
ATOM     12  C   LIG    1        5.848   4.760  -0.021  0.00  0.00    +0.068 A 
ATOM     13  C   LIG    1        5.922   3.903   1.085  0.00  0.00    +0.030 A 
ATOM     14  C   LIG    1        5.126   2.760   1.145  0.00  0.00    +0.033 A 
BRANCH  12  15
ATOM     15  N   LIG    1        6.655   5.921  -0.072  0.00  0.00    -0.240 N 
ATOM     16  N   LIG    1        6.241   7.027  -0.722  0.00  0.00    -0.175 NA
ATOM     17  C   LIG    1        7.204   7.908  -0.569  0.00  0.00    +0.135 A 
ATOM     18  C   LIG    1        8.269   7.405   0.179  0.00  0.00    +0.041 A 
ATOM     19  C   LIG    1        7.896   6.113   0.494  0.00  0.00    +0.114 A 
ENDBRANCH  12  15
ENDBRANCH   6   8
BRANCH   4  20
ATOM     20  C   LIG    1        4.302  -2.293  -0.244  0.00  0.00    +0.098 A 
ATOM     21  N   LIG    1        5.518  -2.394  -0.921  0.00  0.00    -0.230 N 
ATOM     22  N   LIG    1        6.021  -3.643  -0.889  0.00  0.00    -0.174 NA
ATOM     23  C   LIG    1        5.150  -4.357  -0.223  0.00  0.00    +0.135 A 
ATOM     24  C   LIG    1        4.063  -3.594   0.195  0.00  0.00    +0.051 A 
BRANCH  21  25
ATOM     25  C   LIG    1        6.236  -1.418  -1.651  0.00  0.00    +0.066 A 
ATOM     26  C   LIG    1        5.607  -0.723  -2.690  0.00  0.00    +0.028 A 
ATOM     27  C   LIG    1        6.309   0.250  -3.396  0.00  0.00    +0.002 A 
ATOM     28  C   LIG    1        7.636   0.519  -3.068  0.00  0.00    +0.000 A 
ATOM     29  C   LIG    1        8.271  -0.177  -2.042  0.00  0.00    +0.002 A 
ATOM     30  C   LIG    1        7.573  -1.151  -1.332  0.00  0.00    +0.028 A 
ENDBRANCH  21  25
ENDBRANCH   4  20
BRANCH   1  32
ATOM     31  C   LIG    1       -0.762   1.216   0.619  0.00  0.00    +0.277 C 
ATOM     32  O   LIG    1        0.008   0.036   0.406  0.00  0.00    -0.490 OA
ENDBRANCH   1  32
TORSDOF 5
