REMARK  Name = DB14001
REMARK                            x       y       z     vdW  Elec       q    Type
REMARK                         _______ _______ _______ _____ _____    ______ ____
ROOT
ATOM      1  C   LIG    1       -2.616   3.227  -0.043  0.00  0.00    +0.108 C 
ATOM      2  O   LIG    1       -4.051   3.235  -0.023  0.00  0.00    -0.485 OA
ATOM      3  C   LIG    1       -4.688   2.831   1.145  0.00  0.00    +0.128 A 
ATOM      4  C   LIG    1       -4.074   2.937   2.411  0.00  0.00    +0.001 A 
ATOM      5  C   LIG    1       -4.819   2.585   3.550  0.00  0.00    -0.001 A 
ATOM      6  C   LIG    1       -6.146   2.131   3.423  0.00  0.00    +0.138 A 
ATOM      7  C   LIG    1       -6.751   2.055   2.155  0.00  0.00    -0.001 A 
ATOM      8  C   LIG    1       -8.216   1.627   2.030  0.00  0.00    +0.048 C 
ATOM      9  C   LIG    1       -4.163   2.690   4.928  0.00  0.00    +0.048 C 
ATOM     10  C   LIG    1       -2.614   3.394   2.498  0.00  0.00    +0.043 C 
ATOM     11  C   LIG    1       -6.014   2.398   1.008  0.00  0.00    -0.002 A 
ATOM     12  C   LIG    1       -6.641   2.287  -0.383  0.00  0.00    +0.048 C 
ATOM     13  C   LIG    1       -2.165   4.056   1.188  0.00  0.00    +0.052 C 
ATOM     14  C   LIG    1       -2.252   4.003  -1.326  0.00  0.00    +0.055 C 
ENDROOT
BRANCH   1  15
ATOM     15  C   LIG    1       -2.103   1.753  -0.041  0.00  0.00    +0.048 C 
BRANCH  15  16
ATOM     16  C   LIG    1       -0.569   1.589   0.008  0.00  0.00    +0.004 C 
BRANCH  16  17
ATOM     17  C   LIG    1       -0.125   0.113  -0.048  0.00  0.00    +0.003 C 
BRANCH  17  18
ATOM     18  C   LIG    1        1.410  -0.108  -0.070  0.00  0.00    -0.014 C 
ATOM     19  C   LIG    1        1.732  -1.568  -0.453  0.00  0.00    +0.007 C 
BRANCH  18  20
ATOM     20  C   LIG    1        2.087   0.314   1.262  0.00  0.00    +0.003 C 
BRANCH  20  21
ATOM     21  C   LIG    1        3.628   0.236   1.263  0.00  0.00    +0.001 C 
BRANCH  21  22
ATOM     22  C   LIG    1        4.253   0.796   2.557  0.00  0.00    +0.003 C 
BRANCH  22  23
ATOM     23  C   LIG    1        5.802   0.841   2.567  0.00  0.00    -0.014 C 
ATOM     24  C   LIG    1        6.427  -0.571   2.522  0.00  0.00    +0.007 C 
BRANCH  23  25
ATOM     25  C   LIG    1        6.314   1.671   3.773  0.00  0.00    +0.003 C 
BRANCH  25  26
ATOM     26  C   LIG    1        7.827   1.971   3.762  0.00  0.00    +0.001 C 
BRANCH  26  27
ATOM     27  C   LIG    1        8.254   2.934   4.889  0.00  0.00    +0.003 C 
BRANCH  27  29
ATOM     28  C   LIG    1       10.124   3.996   6.247  0.00  0.00    +0.007 C 
ATOM     29  C   LIG    1        9.778   3.184   4.985  0.00  0.00    -0.017 C 
ATOM     30  C   LIG    1       10.357   3.863   3.728  0.00  0.00    +0.007 C 
ENDBRANCH  27  29
ENDBRANCH  26  27
ENDBRANCH  25  26
ENDBRANCH  23  25
ENDBRANCH  22  23
ENDBRANCH  21  22
ENDBRANCH  20  21
ENDBRANCH  18  20
ENDBRANCH  17  18
ENDBRANCH  16  17
ENDBRANCH  15  16
ENDBRANCH   1  15
BRANCH   6  31
ATOM     31  O   LIG    1       -6.869   1.794   4.553  0.00  0.00    -0.425 OA
BRANCH  31  32
ATOM     32  C   LIG    1       -6.922   0.493   4.955  0.00  0.00    +0.313 C 
ATOM     33  O   LIG    1       -6.358  -0.463   4.415  0.00  0.00    -0.250 OA
BRANCH  32  34
ATOM     34  C   LIG    1       -7.803   0.327   6.200  0.00  0.00    +0.132 C 
BRANCH  34  35
ATOM     35  C   LIG    1       -8.062  -1.141   6.620  0.00  0.00    +0.131 C 
BRANCH  35  36
ATOM     36  C   LIG    1       -9.126  -1.295   7.713  0.00  0.00    +0.305 C 
ATOM     37  O   LIG    1       -9.721  -0.354   8.237  0.00  0.00    -0.251 OA
BRANCH  36  38
ATOM     38  O   LIG    1       -9.323  -2.608   8.024  0.00  0.00    -0.481 OA
ATOM     39  H   LIG    1       -9.987  -2.725   8.707  0.00  0.00    +0.295 HD
ENDBRANCH  36  38
ENDBRANCH  35  36
ENDBRANCH  34  35
ENDBRANCH  32  34
ENDBRANCH  31  32
ENDBRANCH   6  31
TORSDOF 18
