REMARK  Name = DB14675
REMARK                            x       y       z     vdW  Elec       q    Type
REMARK                         _______ _______ _______ _____ _____    ______ ____
ROOT
ATOM      1  C   LIG    1       -3.435  -1.628  -0.210  0.00  0.00    +0.180 A 
ATOM      2  N   LIG    1       -3.248  -2.935  -0.523  0.00  0.00    -0.231 NA
ATOM      3  C   LIG    1       -1.998  -3.405  -0.724  0.00  0.00    +0.159 A 
ATOM      4  C   LIG    1       -0.838  -2.623  -0.634  0.00  0.00    +0.148 A 
ATOM      5  C   LIG    1       -0.985  -1.250  -0.311  0.00  0.00    +0.057 A 
ATOM      6  C   LIG    1       -0.094  -0.112  -0.123  0.00  0.00    +0.056 A 
ATOM      7  C   LIG    1       -0.914   0.961   0.192  0.00  0.00    +0.095 A 
ATOM      8  N   LIG    1       -2.223   0.572   0.205  0.00  0.00    -0.357 N 
ATOM      9  H   LIG    1       -2.978   1.211   0.410  0.00  0.00    +0.165 HD
ATOM     10  C   LIG    1       -2.324  -0.768  -0.097  0.00  0.00    +0.096 A 
ENDROOT
BRANCH   1  14
ATOM     11  C   LIG    1       -7.273   1.189   0.732  0.00  0.00    +0.090 C 
ATOM     12  C   LIG    1       -6.438  -0.021   0.375  0.00  0.00    +0.148 A 
ATOM     13  N   LIG    1       -5.125   0.043   0.298  0.00  0.00    -0.149 NA
ATOM     14  N   LIG    1       -4.780  -1.215  -0.015  0.00  0.00    -0.200 N 
ATOM     15  C   LIG    1       -5.939  -1.950  -0.094  0.00  0.00    +0.227 A 
ATOM     16  N   LIG    1       -6.985  -1.206   0.156  0.00  0.00    -0.219 NA
ENDBRANCH   1  14
BRANCH   4  17
ATOM     17  O   LIG    1        0.443  -3.091  -0.834  0.00  0.00    -0.493 OA
ATOM     18  C   LIG    1        0.637  -4.462  -1.163  0.00  0.00    +0.277 C 
ENDBRANCH   4  17
BRANCH   6  19
ATOM     19  C   LIG    1        1.373  -0.065  -0.233  0.00  0.00    +0.250 C 
ATOM     20  O   LIG    1        2.087  -1.021  -0.527  0.00  0.00    -0.282 OA
BRANCH  19  21
ATOM     21  C   LIG    1        2.096   1.317   0.048  0.00  0.00    +0.287 C 
ATOM     22  O   LIG    1        1.982   2.211  -0.794  0.00  0.00    -0.266 OA
ATOM     23  N   LIG    1        2.809   1.403   1.208  0.00  0.00    -0.292 N 
ATOM     24  C   LIG    1        2.862   0.331   2.236  0.00  0.00    +0.127 C 
ATOM     25  C   LIG    1        3.110   0.991   3.613  0.00  0.00    +0.127 C 
ATOM     26  N   LIG    1        4.403   1.714   3.568  0.00  0.00    -0.295 N 
ATOM     27  C   LIG    1        5.342   1.517   4.535  0.00  0.00    +0.247 C 
ATOM     28  O   LIG    1        6.551   1.509   4.285  0.00  0.00    -0.270 OA
ATOM     29  C   LIG    1        4.845   2.275   2.271  0.00  0.00    +0.127 C 
ATOM     30  C   LIG    1        3.580   2.644   1.456  0.00  0.00    +0.127 C 
BRANCH  27  31
ATOM     31  C   LIG    1        4.895   1.337   5.974  0.00  0.00    +0.037 A 
ATOM     32  C   LIG    1        3.732   1.951   6.465  0.00  0.00    +0.013 A 
ATOM     33  C   LIG    1        3.353   1.788   7.795  0.00  0.00    +0.001 A 
ATOM     34  C   LIG    1        4.141   1.019   8.647  0.00  0.00    +0.000 A 
ATOM     35  C   LIG    1        5.306   0.418   8.183  0.00  0.00    +0.001 A 
ATOM     36  C   LIG    1        5.685   0.582   6.853  0.00  0.00    +0.013 A 
ENDBRANCH  27  31
ENDBRANCH  19  21
ENDBRANCH   6  19
TORSDOF 5
