REMARK  Name = DB14680
REMARK                            x       y       z     vdW  Elec       q    Type
REMARK                         _______ _______ _______ _____ _____    ______ ____
ROOT
ATOM      1  C   LIG    1        4.397  -0.418   0.043  0.00  0.00    +0.204 A 
ATOM      2  C   LIG    1        3.814   0.525  -0.814  0.00  0.00    +0.166 A 
ATOM      3  C   LIG    1        2.426   0.719  -0.762  0.00  0.00    +0.057 A 
ATOM      4  C   LIG    1        1.627   0.001   0.133  0.00  0.00    -0.018 A 
ATOM      5  C   LIG    1        2.227  -0.945   0.966  0.00  0.00    +0.057 A 
ATOM      6  C   LIG    1        3.613  -1.167   0.932  0.00  0.00    +0.166 A 
ENDROOT
BRANCH   1   7
ATOM      7  O   LIG    1        5.754  -0.631  -0.006  0.00  0.00    -0.488 OA
ATOM      8  C   LIG    1        6.502   0.203   0.869  0.00  0.00    +0.277 C 
ENDBRANCH   1   7
BRANCH   2   9
ATOM      9  O   LIG    1        4.658   1.217  -1.665  0.00  0.00    -0.491 OA
ATOM     10  C   LIG    1        4.120   2.222  -2.517  0.00  0.00    +0.277 C 
ENDBRANCH   2   9
BRANCH   4  11
ATOM     11  C   LIG    1        0.167   0.206   0.215  0.00  0.00    +0.009 C 
ATOM     12  C   LIG    1       -0.536   1.356   0.116  0.00  0.00    +0.008 C 
BRANCH  12  13
ATOM     13  C   LIG    1       -0.039   2.744   0.017  0.00  0.00    -0.021 A 
ATOM     14  C   LIG    1       -0.724   3.655  -0.790  0.00  0.00    +0.012 A 
ATOM     15  C   LIG    1       -0.278   4.970  -0.917  0.00  0.00    +0.050 A 
ATOM     16  C   LIG    1        0.868   5.408  -0.232  0.00  0.00    +0.161 A 
ATOM     17  C   LIG    1        1.547   4.495   0.586  0.00  0.00    +0.159 A 
ATOM     18  C   LIG    1        1.094   3.182   0.712  0.00  0.00    +0.057 A 
BRANCH  16  19
ATOM     19  O   LIG    1        1.371   6.695  -0.313  0.00  0.00    -0.491 OA
ATOM     20  C   LIG    1        0.703   7.657  -1.122  0.00  0.00    +0.277 C 
ENDBRANCH  16  19
BRANCH  17  21
ATOM     21  O   LIG    1        2.669   4.877   1.278  0.00  0.00    -0.503 OA
ATOM     22  H   LIG    1        3.042   4.166   1.805  0.00  0.00    +0.292 HD
ENDBRANCH  17  21
ENDBRANCH  12  13
ENDBRANCH   4  11
BRANCH   6  23
ATOM     23  O   LIG    1        4.268  -2.084   1.734  0.00  0.00    -0.491 OA
ATOM     24  C   LIG    1        3.520  -2.857   2.667  0.00  0.00    +0.277 C 
ENDBRANCH   6  23
TORSDOF 7
