REMARK  Name = DB14921
REMARK                            x       y       z     vdW  Elec       q    Type
REMARK                         _______ _______ _______ _____ _____    ______ ____
ROOT
ATOM      1  N   LIG    1       -2.347   0.326   0.155  0.00  0.00    -0.258 N 
ATOM      2  C   LIG    1       -1.795  -0.883   0.557  0.00  0.00    +0.259 A 
ATOM      3  O   LIG    1       -2.387  -1.805   1.122  0.00  0.00    -0.267 OA
ATOM      4  C   LIG    1       -0.382  -1.010   0.248  0.00  0.00    +0.112 A 
ATOM      5  C   LIG    1        0.267  -0.008  -0.380  0.00  0.00    +0.106 A 
ATOM      6  N   LIG    1       -0.364   1.143  -0.729  0.00  0.00    -0.296 N 
ATOM      7  H   LIG    1        0.126   1.865  -1.236  0.00  0.00    +0.172 HD
ATOM      8  C   LIG    1       -1.660   1.405  -0.399  0.00  0.00    +0.331 A 
ATOM      9  O   LIG    1       -2.064   2.566  -0.467  0.00  0.00    -0.246 OA
ENDROOT
BRANCH   1  11
ATOM     10  C   LIG    1       -4.665   0.817  -0.829  0.00  0.00    +0.031 C 
ATOM     11  C   LIG    1       -3.810   0.504   0.422  0.00  0.00    +0.089 C 
ATOM     12  C   LIG    1       -4.122   1.425   1.624  0.00  0.00    +0.031 C 
ENDBRANCH   1  11
BRANCH   5  13
ATOM     13  N   LIG    1        1.591   0.009  -0.758  0.00  0.00    -0.324 N 
ATOM     14  H   LIG    1        1.940   0.790  -1.293  0.00  0.00    +0.148 HD
BRANCH  13  15
ATOM     15  C   LIG    1        2.597  -1.027  -0.536  0.00  0.00    +0.099 C 
ATOM     16  C   LIG    1        3.900  -0.708  -1.286  0.00  0.00    +0.033 C 
BRANCH  15  17
ATOM     17  C   LIG    1        2.855  -1.277   0.954  0.00  0.00    -0.028 A 
ATOM     18  C   LIG    1        3.059  -2.587   1.396  0.00  0.00    +0.005 A 
ATOM     19  C   LIG    1        3.313  -2.841   2.742  0.00  0.00    +0.000 A 
ATOM     20  C   LIG    1        3.371  -1.781   3.644  0.00  0.00    +0.000 A 
ATOM     21  C   LIG    1        3.184  -0.470   3.213  0.00  0.00    +0.000 A 
ATOM     22  C   LIG    1        2.932  -0.217   1.867  0.00  0.00    +0.005 A 
ENDBRANCH  15  17
ENDBRANCH  13  15
ENDBRANCH   5  13
TORSDOF 4
