REMARK  Name = DB14773
REMARK                            x       y       z     vdW  Elec       q    Type
REMARK                         _______ _______ _______ _____ _____    ______ ____
ROOT
ATOM      1  C   LIG    1        1.501   0.082  -0.294  0.00  0.00    +0.107 C 
ATOM      2  C   LIG    1        2.177  -0.616  -1.460  0.00  0.00    +0.078 C 
ATOM      3  C   LIG    1        3.638  -0.870  -1.258  0.00  0.00    +0.005 A 
ATOM      4  C   LIG    1        4.369  -2.039  -1.050  0.00  0.00    +0.054 A 
ATOM      5  C   LIG    1        5.748  -1.961  -0.820  0.00  0.00    +0.129 A 
ATOM      6  C   LIG    1        6.383  -0.708  -0.796  0.00  0.00    +0.050 A 
ATOM      7  C   LIG    1        5.644   0.467  -0.964  0.00  0.00    +0.049 A 
ATOM      8  C   LIG    1        4.274   0.355  -1.178  0.00  0.00    +0.125 A 
ATOM      9  O   LIG    1        3.404   1.410  -1.301  0.00  0.00    -0.487 OA
ATOM     10  C   LIG    1        2.079   0.880  -1.468  0.00  0.00    +0.193 C 
ENDROOT
BRANCH   1  17
ATOM     11  C   LIG    1       -4.455  -0.607  -0.222  0.00  0.00    +0.057 A 
ATOM     12  C   LIG    1       -4.405   0.413   0.738  0.00  0.00    +0.014 A 
ATOM     13  C   LIG    1       -3.206   0.999   1.150  0.00  0.00    +0.028 A 
ATOM     14  C   LIG    1       -2.039   0.518   0.553  0.00  0.00    +0.066 A 
ATOM     15  N   LIG    1       -0.706   0.827   0.684  0.00  0.00    -0.341 N 
ATOM     16  H   LIG    1       -0.267   1.514   1.280  0.00  0.00    +0.167 HD
ATOM     17  C   LIG    1       -0.008   0.010  -0.175  0.00  0.00    +0.116 A 
ATOM     18  N   LIG    1       -0.786  -0.803  -0.850  0.00  0.00    -0.232 NA
ATOM     19  C   LIG    1       -2.054  -0.511  -0.421  0.00  0.00    +0.090 A 
ATOM     20  C   LIG    1       -3.274  -1.079  -0.813  0.00  0.00    +0.042 A 
BRANCH  11  22
ATOM     21  F   LIG    1       -6.357  -1.796   0.439  0.00  0.00    -0.166 F 
ATOM     22  C   LIG    1       -5.813  -1.188  -0.616  0.00  0.00    +0.417 C 
ATOM     23  F   LIG    1       -6.628  -0.209  -1.011  0.00  0.00    -0.166 F 
ATOM     24  F   LIG    1       -5.723  -2.076  -1.608  0.00  0.00    -0.166 F 
ENDBRANCH  11  22
ENDBRANCH   1  17
BRANCH   5  25
ATOM     25  O   LIG    1        6.459  -3.128  -0.653  0.00  0.00    -0.456 OA
BRANCH  25  26
ATOM     26  C   LIG    1        7.261  -3.311   0.455  0.00  0.00    +0.136 A 
ATOM     27  C   LIG    1        6.926  -2.795   1.719  0.00  0.00    +0.066 A 
ATOM     28  C   LIG    1        7.772  -3.050   2.799  0.00  0.00    +0.116 A 
ATOM     29  N   LIG    1        8.911  -3.778   2.686  0.00  0.00    -0.240 NA
ATOM     30  C   LIG    1        9.211  -4.281   1.464  0.00  0.00    +0.132 A 
ATOM     31  N   LIG    1       10.427  -4.960   1.384  0.00  0.00    -0.270 N 
ATOM     32  H   LIG    1       10.860  -5.249   2.249  0.00  0.00    +0.156 HD
ATOM     33  C   LIG    1       11.101  -5.325   0.272  0.00  0.00    +0.219 C 
ATOM     34  O   LIG    1       12.159  -5.948   0.313  0.00  0.00    -0.275 OA
ATOM     35  C   LIG    1       10.442  -4.831  -1.045  0.00  0.00    +0.101 C 
ATOM     36  C   LIG    1        8.890  -4.740  -0.972  0.00  0.00    +0.051 C 
ATOM     37  C   LIG    1        8.424  -4.085   0.323  0.00  0.00    +0.035 A 
ENDBRANCH  25  26
ENDBRANCH   5  25
TORSDOF 4
