REMARK  Name = DB14541
REMARK                            x       y       z     vdW  Elec       q    Type
REMARK                         _______ _______ _______ _____ _____    ______ ____
ROOT
ATOM      1  C   LIG    1       -0.381  -1.093   1.187  0.00  0.00    +0.009 C 
ATOM      2  C   LIG    1        0.504  -2.385   1.325  0.00  0.00    +0.015 C 
ATOM      3  C   LIG    1       -0.455  -0.313   2.535  0.00  0.00    +0.041 C 
ATOM      4  C   LIG    1       -1.178  -1.092   3.671  0.00  0.00    +0.119 C 
ATOM      5  C   LIG    1       -2.609  -1.578   3.230  0.00  0.00    +0.031 C 
ATOM      6  C   LIG    1       -3.438  -2.385   4.313  0.00  0.00    -0.005 C 
ATOM      7  C   LIG    1       -2.841  -3.785   4.650  0.00  0.00    +0.016 C 
ATOM      8  C   LIG    1       -3.579  -1.619   5.674  0.00  0.00    +0.019 C 
ATOM      9  C   LIG    1       -4.638  -0.501   5.702  0.00  0.00    +0.080 C 
ATOM     10  C   LIG    1       -6.002  -1.044   5.266  0.00  0.00    +0.156 C 
ATOM     11  O   LIG    1       -7.058  -0.631   5.740  0.00  0.00    -0.293 OA
ATOM     12  C   LIG    1       -5.969  -1.975   4.148  0.00  0.00    +0.046 C 
ATOM     13  C   LIG    1       -4.849  -2.580   3.689  0.00  0.00    -0.060 C 
ATOM     14  C   LIG    1       -4.857  -3.399   2.400  0.00  0.00    +0.032 C 
ATOM     15  C   LIG    1       -4.030  -2.628   1.355  0.00  0.00    +0.008 C 
ATOM     16  C   LIG    1       -2.591  -2.305   1.831  0.00  0.00    -0.001 C 
ATOM     17  C   LIG    1        0.017  -0.240  -0.083  0.00  0.00    +0.133 C 
ATOM     18  C   LIG    1       -0.564  -1.083  -1.258  0.00  0.00    +0.043 C 
ATOM     19  C   LIG    1       -1.773  -1.855  -0.682  0.00  0.00    +0.008 C 
ATOM     20  C   LIG    1       -1.844  -1.423   0.792  0.00  0.00    +0.002 C 
ENDROOT
BRANCH   4  21
ATOM     21  O   LIG    1       -0.351  -2.114   4.188  0.00  0.00    -0.391 OA
ATOM     22  H   LIG    1       -0.790  -2.506   4.947  0.00  0.00    +0.210 HD
ENDBRANCH   4  21
BRANCH  17  23
ATOM     23  O   LIG    1       -0.557   1.063  -0.099  0.00  0.00    -0.380 OA
ATOM     24  H   LIG    1       -1.512   0.974  -0.060  0.00  0.00    +0.211 HD
ENDBRANCH  17  23
BRANCH  17  25
ATOM     25  C   LIG    1        1.535   0.038  -0.271  0.00  0.00    +0.202 C 
ATOM     26  O   LIG    1        2.353  -0.163   0.630  0.00  0.00    -0.291 OA
BRANCH  25  27
ATOM     27  C   LIG    1        1.986   0.591  -1.636  0.00  0.00    +0.309 C 
BRANCH  27  28
ATOM     28  O   LIG    1        3.360   0.964  -1.607  0.00  0.00    -0.457 OA
BRANCH  28  29
ATOM     29  C   LIG    1        3.986   1.379  -2.726  0.00  0.00    +0.307 C 
ATOM     30  O   LIG    1        3.485   1.483  -3.847  0.00  0.00    -0.251 OA
BRANCH  29  31
ATOM     31  C   LIG    1        5.458   1.715  -2.478  0.00  0.00    +0.121 C 
BRANCH  31  32
ATOM     32  C   LIG    1        6.421   0.534  -2.743  0.00  0.00    +0.014 C 
BRANCH  32  33
ATOM     33  C   LIG    1        6.226  -0.715  -1.845  0.00  0.00    -0.010 C 
ATOM     34  C   LIG    1        7.178  -1.873  -2.212  0.00  0.00    +0.003 C 
ATOM     35  C   LIG    1        7.608  -2.498  -0.884  0.00  0.00    +0.000 C 
ATOM     36  C   LIG    1        7.651  -1.314   0.076  0.00  0.00    +0.000 C 
ATOM     37  C   LIG    1        6.457  -0.449  -0.339  0.00  0.00    +0.003 C 
ENDBRANCH  32  33
ENDBRANCH  31  32
ENDBRANCH  29  31
ENDBRANCH  28  29
ENDBRANCH  27  28
ENDBRANCH  25  27
ENDBRANCH  17  25
TORSDOF 9
