REMARK  Name = DB14624
REMARK                            x       y       z     vdW  Elec       q    Type
REMARK                         _______ _______ _______ _____ _____    ______ ____
ROOT
ATOM      1  C   LIG    1        0.430  -2.119   1.378  0.00  0.00    +0.014 C 
ATOM      2  C   LIG    1       -0.486  -0.862   1.227  0.00  0.00    -0.000 C 
ATOM      3  C   LIG    1       -0.045  -0.019   0.008  0.00  0.00    +0.158 C 
ATOM      4  C   LIG    1       -0.631  -0.742  -1.225  0.00  0.00    +0.035 C 
ATOM      5  C   LIG    1       -1.809  -1.589  -0.699  0.00  0.00    +0.007 C 
ATOM      6  C   LIG    1       -1.932  -1.185   0.777  0.00  0.00    +0.001 C 
ATOM      7  C   LIG    1       -2.664  -2.107   1.790  0.00  0.00    -0.003 C 
ATOM      8  C   LIG    1       -4.083  -2.477   1.325  0.00  0.00    +0.008 C 
ATOM      9  C   LIG    1       -4.729  -3.461   2.309  0.00  0.00    +0.031 C 
ATOM     10  C   LIG    1       -4.808  -2.832   3.700  0.00  0.00    -0.063 C 
ATOM     11  C   LIG    1       -3.479  -2.245   4.247  0.00  0.00    +0.019 C 
ATOM     12  C   LIG    1       -3.725  -1.446   5.562  0.00  0.00    +0.016 C 
ATOM     13  C   LIG    1       -4.785  -2.046   6.504  0.00  0.00    +0.079 C 
ATOM     14  C   LIG    1       -6.098  -2.313   5.762  0.00  0.00    +0.156 C 
ATOM     15  O   LIG    1       -7.194  -2.212   6.310  0.00  0.00    -0.293 OA
ATOM     16  C   LIG    1       -5.960  -2.830   4.409  0.00  0.00    +0.045 C 
ATOM     17  C   LIG    1       -2.750  -1.376   3.167  0.00  0.00    -0.000 C 
ATOM     18  C   LIG    1       -1.336  -0.912   3.639  0.00  0.00    +0.005 C 
ATOM     19  C   LIG    1       -0.587  -0.084   2.564  0.00  0.00    +0.010 C 
ENDROOT
BRANCH   3  20
ATOM     20  O   LIG    1        1.372   0.088  -0.094  0.00  0.00    -0.212 OA
BRANCH  20  21
ATOM     21  S   LIG    1        2.064   1.607  -0.031  0.00  0.00    +0.208 S 
ATOM     22  O   LIG    1        1.645   2.140   1.271  0.00  0.00    -0.118 OA
ATOM     23  O   LIG    1        1.489   2.309  -1.185  0.00  0.00    -0.118 OA
BRANCH  21  24
ATOM     24  O   LIG    1        3.502   1.336  -0.141  0.00  0.00    -0.231 OA
ATOM     25  H   LIG    1        3.698   0.988  -1.025  0.00  0.00    +0.247 HD
ENDBRANCH  21  24
ENDBRANCH  20  21
ENDBRANCH   3  20
TORSDOF 3
