REMARK  Name = DB14626
REMARK                            x       y       z     vdW  Elec       q    Type
REMARK                         _______ _______ _______ _____ _____    ______ ____
ROOT
ATOM      1  C   LIG    1       -0.509  -0.800  -1.367  0.00  0.00    +0.046 C 
ATOM      2  C   LIG    1       -2.019  -1.093  -1.317  0.00  0.00    +0.015 C 
ATOM      3  C   LIG    1       -2.544  -1.661   0.044  0.00  0.00    -0.008 C 
ATOM      4  C   LIG    1       -2.026  -3.111   0.257  0.00  0.00    +0.016 C 
ATOM      5  C   LIG    1       -4.122  -1.597   0.048  0.00  0.00    +0.003 C 
ATOM      6  C   LIG    1       -4.801  -2.554  -0.991  0.00  0.00    +0.005 C 
ATOM      7  C   LIG    1       -6.348  -2.524  -0.940  0.00  0.00    +0.008 C 
ATOM      8  C   LIG    1       -6.875  -2.810   0.489  0.00  0.00    -0.019 C 
ATOM      9  C   LIG    1       -6.499  -4.259   0.951  0.00  0.00    +0.012 C 
ATOM     10  C   LIG    1       -8.386  -2.494   0.705  0.00  0.00    +0.061 C 
ATOM     11  C   LIG    1       -8.519  -2.215   2.227  0.00  0.00    +0.012 C 
ATOM     12  C   LIG    1       -7.121  -1.757   2.689  0.00  0.00    +0.005 C 
ATOM     13  C   LIG    1       -6.290  -1.702   1.398  0.00  0.00    -0.001 C 
ATOM     14  C   LIG    1       -4.738  -1.736   1.479  0.00  0.00    +0.000 C 
ATOM     15  C   LIG    1       -4.218  -0.635   2.435  0.00  0.00    +0.031 C 
ATOM     16  C   LIG    1       -2.745  -0.335   2.218  0.00  0.00    -0.027 C 
ATOM     17  C   LIG    1       -1.982  -0.780   1.196  0.00  0.00    -0.064 C 
ATOM     18  C   LIG    1       -0.485  -0.455   1.135  0.00  0.00    +0.075 C 
ATOM     19  C   LIG    1       -0.124   0.161  -0.234  0.00  0.00    +0.180 C 
ENDROOT
BRANCH  10  20
ATOM     20  C   LIG    1       -9.352  -3.585   0.186  0.00  0.00    +0.134 C 
ATOM     21  O   LIG    1       -9.794  -4.478   0.909  0.00  0.00    -0.297 OA
ATOM     22  C   LIG    1       -9.794  -3.484  -1.271  0.00  0.00    +0.086 C 
ENDBRANCH  10  20
BRANCH  19  23
ATOM     23  O   LIG    1        1.267   0.466  -0.335  0.00  0.00    -0.461 OA
BRANCH  23  24
ATOM     24  C   LIG    1        1.792   1.587   0.211  0.00  0.00    +0.304 C 
ATOM     25  O   LIG    1        1.179   2.452   0.837  0.00  0.00    -0.251 OA
ATOM     26  C   LIG    1        3.293   1.695  -0.029  0.00  0.00    +0.136 C 
ENDBRANCH  23  24
ENDBRANCH  19  23
TORSDOF 3
