REMARK  Name = DB14850
REMARK                            x       y       z     vdW  Elec       q    Type
REMARK                         _______ _______ _______ _____ _____    ______ ____
ROOT
ATOM      1  N   LIG    1        1.404   0.012   0.043  0.00  0.00    -0.299 N 
ATOM      2  H   LIG    1        1.780  -0.392   0.888  0.00  0.00    +0.150 HD
ATOM      3  C   LIG    1        2.275   0.367  -0.924  0.00  0.00    +0.245 C 
ATOM      4  O   LIG    1        1.914   0.852  -1.999  0.00  0.00    -0.270 OA
ENDROOT
BRANCH   3   5
ATOM      5  C   LIG    1        3.746   0.163  -0.618  0.00  0.00    +0.039 A 
ATOM      6  C   LIG    1        4.705   0.808  -1.407  0.00  0.00    +0.014 A 
ATOM      7  C   LIG    1        6.069   0.652  -1.182  0.00  0.00    +0.011 A 
ATOM      8  C   LIG    1        6.508  -0.174  -0.135  0.00  0.00    +0.004 A 
ATOM      9  C   LIG    1        7.806  -0.567   0.345  0.00  0.00    -0.008 A 
ATOM     10  C   LIG    1        7.585  -1.423   1.430  0.00  0.00    +0.091 A 
ATOM     11  N   LIG    1        6.215  -1.534   1.638  0.00  0.00    -0.340 N 
ATOM     12  C   LIG    1        5.554  -2.331   2.671  0.00  0.00    +0.149 C 
ATOM     13  C   LIG    1        5.533  -0.817   0.671  0.00  0.00    +0.050 A 
ATOM     14  C   LIG    1        4.157  -0.664   0.442  0.00  0.00    +0.039 A 
BRANCH  10  15
ATOM     15  C   LIG    1        8.609  -2.122   2.280  0.00  0.00    +0.177 A 
ATOM     16  N   LIG    1        9.689  -1.391   2.670  0.00  0.00    -0.233 NA
ATOM     17  C   LIG    1       10.609  -2.031   3.438  0.00  0.00    +0.130 A 
ATOM     18  C   LIG    1       10.465  -3.368   3.816  0.00  0.00    +0.054 A 
ATOM     19 BR   LIG    1       11.765  -4.242   4.896  0.00  0.00    -0.047 Br
ATOM     20  C   LIG    1        9.324  -4.036   3.365  0.00  0.00    +0.130 A 
ATOM     21  N   LIG    1        8.384  -3.428   2.595  0.00  0.00    -0.233 NA
ENDBRANCH  10  15
BRANCH   9  22
ATOM     22  C   LIG    1        9.139  -0.140  -0.269  0.00  0.00    +0.022 C 
ATOM     23  C   LIG    1        9.307  -0.457  -1.771  0.00  0.00    +0.008 C 
ATOM     24  C   LIG    1        9.860   0.816  -2.430  0.00  0.00    +0.001 C 
ATOM     25  C   LIG    1       10.388   1.676  -1.281  0.00  0.00    +0.001 C 
ATOM     26  C   LIG    1        9.452   1.357  -0.116  0.00  0.00    +0.008 C 
ENDBRANCH   9  22
ENDBRANCH   3   5
BRANCH   1  27
ATOM     27  C   LIG    1       -0.062   0.090  -0.025  0.00  0.00    +0.093 C 
ATOM     28  C   LIG    1       -0.690  -0.750  -1.172  0.00  0.00    +0.034 C 
ATOM     29  C   LIG    1       -1.788  -1.173  -0.189  0.00  0.00    +0.005 C 
ATOM     30  C   LIG    1       -0.775  -0.895   0.930  0.00  0.00    +0.034 C 
BRANCH  27  40
ATOM     31  C   LIG    1        0.526   2.046   2.380  0.00  0.00    +0.150 C 
ATOM     32  N   LIG    1       -0.255   2.369   1.192  0.00  0.00    -0.329 N 
ATOM     33  C   LIG    1       -0.790   3.611   0.902  0.00  0.00    +0.069 A 
ATOM     34  C   LIG    1       -0.822   4.830   1.589  0.00  0.00    +0.036 A 
ATOM     35  C   LIG    1       -1.486   5.904   0.970  0.00  0.00    -0.023 A 
ATOM     36  C   LIG    1       -2.084   5.738  -0.286  0.00  0.00    +0.010 A 
ATOM     37  C   LIG    1       -2.046   4.524  -0.971  0.00  0.00    +0.030 A 
ATOM     38  C   LIG    1       -1.386   3.447  -0.368  0.00  0.00    +0.089 A 
ATOM     39  N   LIG    1       -1.204   2.177  -0.837  0.00  0.00    -0.230 NA
ATOM     40  C   LIG    1       -0.517   1.558   0.095  0.00  0.00    +0.134 A 
BRANCH  35  41
ATOM     41  C   LIG    1       -1.578   7.238   1.606  0.00  0.00    +0.015 C 
ATOM     42  C   LIG    1       -1.013   7.627   2.773  0.00  0.00    +0.092 C 
BRANCH  42  43
ATOM     43  C   LIG    1       -1.136   9.039   3.408  0.00  0.00    +0.330 C 
ATOM     44  O   LIG    1       -0.544   9.149   4.505  0.00  0.00    -0.246 OA
BRANCH  43  45
ATOM     45  O   LIG    1       -1.793   9.896   2.772  0.00  0.00    -0.478 OA
ATOM     46  H   LIG    1       -1.893  10.762   3.117  0.00  0.00    +0.295 HD
ENDBRANCH  43  45
ENDBRANCH  42  43
ENDBRANCH  35  41
ENDBRANCH  27  40
ENDBRANCH   1  27
TORSDOF 8
