REMARK  Name = DB14886
REMARK                            x       y       z     vdW  Elec       q    Type
REMARK                         _______ _______ _______ _____ _____    ______ ____
ROOT
ATOM      1  N   ALA A  1        1.404  -0.143   0.435  0.00  0.00    -0.302 N 
ATOM      2  H   ALA A  1        1.762  -0.247   1.373  0.00  0.00    +0.150 HD
ATOM      3  C   ALA A  1        2.261  -0.084  -0.597  0.00  0.00    +0.236 C 
ATOM      4  O   ALA A  1        1.919   0.048  -1.774  0.00  0.00    -0.274 OA
ENDROOT
BRANCH   1   5
ATOM      5  CA  ALA A  1       -0.049  -0.036   0.310  0.00  0.00    +0.159 C 
BRANCH   5   8
ATOM      6  N   ALA A  1       -1.392   1.629  -0.873  0.00  0.00    -0.300 N 
ATOM      7  H   ALA A  1       -1.731   0.845  -1.410  0.00  0.00    +0.150 HD
ATOM      8  C   ALA A  1       -0.478   1.425   0.090  0.00  0.00    +0.234 C 
ATOM      9  O   ALA A  1       -0.006   2.312   0.802  0.00  0.00    -0.274 OA
BRANCH   6  10
ATOM     10  CA  ALA A  1       -1.995   2.924  -1.194  0.00  0.00    +0.187 C 
BRANCH  10  11
ATOM     11  C   ALA A  1       -3.055   3.334  -0.149  0.00  0.00    +0.236 C 
ATOM     12  N   ALA A  1       -3.229   4.657   0.016  0.00  0.00    -0.303 N 
ATOM     13  H   ALA A  1       -2.670   5.300  -0.525  0.00  0.00    +0.149 HD
ATOM     14  O   ALA A  1       -3.692   2.471   0.458  0.00  0.00    -0.274 OA
BRANCH  12  15
ATOM     15  CA  ALA A  1       -4.205   5.268   0.920  0.00  0.00    +0.156 C 
ATOM     16  CB  ALA A  1       -3.963   6.784   0.963  0.00  0.00    +0.038 C 
BRANCH  15  17
ATOM     17  C   ALA A  1       -5.657   4.963   0.514  0.00  0.00    +0.234 C 
ATOM     18  N   ALA A  2       -6.488   4.657   1.522  0.00  0.00    -0.303 N 
ATOM     19  H   ALA A  2       -6.138   4.644   2.469  0.00  0.00    +0.149 HD
ATOM     20  O   ALA A  1       -5.985   5.021  -0.672  0.00  0.00    -0.274 OA
BRANCH  18  21
ATOM     21  CA  ALA A  2       -7.903   4.321   1.372  0.00  0.00    +0.156 C 
ATOM     22  CB  ALA A  2       -8.049   2.888   0.825  0.00  0.00    +0.038 C 
BRANCH  21  23
ATOM     23  C   ALA A  2       -8.627   4.471   2.716  0.00  0.00    +0.234 C 
ATOM     24  N   LYS A  3       -9.938   4.754   2.641  0.00  0.00    -0.301 N 
ATOM     25  H   LYS A  3      -10.371   4.854   1.734  0.00  0.00    +0.150 HD
ATOM     26  O   ALA A  2       -8.011   4.311   3.771  0.00  0.00    -0.274 OA
BRANCH  24  27
ATOM     27  CA  LYS A  3      -10.838   4.913   3.793  0.00  0.00    +0.182 C 
BRANCH  27  28
ATOM     28  C   LYS A  3      -12.299   4.571   3.299  0.00  0.00    +0.325 C 
ATOM     29  OXT LYS A  3      -12.462   3.374   2.963  0.00  0.00    -0.249 OA
BRANCH  28  30
ATOM     30  O   LYS A  3      -13.143   5.499   3.289  0.00  0.00    -0.479 OA
ATOM     31  H   LYS A  3      -14.019   5.332   3.002  0.00  0.00    +0.295 HD
ENDBRANCH  28  30
ENDBRANCH  27  28
BRANCH  27  32
ATOM     32  CB  LYS A  3      -10.668   6.341   4.407  0.00  0.00    +0.034 C 
BRANCH  32  33
ATOM     33  CG  LYS A  3      -11.279   6.497   5.813  0.00  0.00    +0.000 C 
BRANCH  33  34
ATOM     34  CD  LYS A  3      -11.058   7.899   6.398  0.00  0.00    -0.019 C 
BRANCH  34  35
ATOM     35  CE  LYS A  3      -11.682   8.052   7.794  0.00  0.00    -0.086 C 
BRANCH  35  36
ATOM     36  NZ  LYS A  3      -11.472   9.405   8.341  0.00  0.00    +0.378 N 
ATOM     37  HZ1 LYS A  3      -10.482   9.591   8.414  0.00  0.00    -0.090 HD
ATOM     38  HZ2 LYS A  3      -11.897  10.085   7.727  0.00  0.00    -0.090 HD
ATOM     39  HZ3 LYS A  3      -11.895   9.469   9.256  0.00  0.00    -0.090 HD
ENDBRANCH  35  36
ENDBRANCH  34  35
ENDBRANCH  33  34
ENDBRANCH  32  33
ENDBRANCH  27  32
ENDBRANCH  24  27
ENDBRANCH  21  23
ENDBRANCH  18  21
ENDBRANCH  15  17
ENDBRANCH  12  15
ENDBRANCH  10  11
BRANCH  10  41
ATOM     40  CG2 ALA A  1       -1.730   2.438  -3.720  0.00  0.00    +0.040 C 
ATOM     41  CB  ALA A  1       -2.675   2.887  -2.593  0.00  0.00    +0.141 C 
BRANCH  41  42
ATOM     42  OG1 ALA A  1       -3.844   2.087  -2.622  0.00  0.00    -0.390 OA
ATOM     43  HG1 ALA A  1       -4.488   2.465  -2.019  0.00  0.00    +0.210 HD
ENDBRANCH  41  42
ENDBRANCH  10  41
ENDBRANCH   6  10
ENDBRANCH   5   8
BRANCH   5  44
ATOM     44  CB  ALA A  1       -0.702  -0.664   1.562  0.00  0.00    +0.032 C 
BRANCH  44  45
ATOM     45  CG  ALA A  1       -2.242  -0.624   1.570  0.00  0.00    +0.000 C 
BRANCH  45  46
ATOM     46  CD  ALA A  1       -2.860  -1.340   2.778  0.00  0.00    -0.019 C 
BRANCH  46  47
ATOM     47  CE  ALA A  1       -4.395  -1.237   2.783  0.00  0.00    -0.086 C 
BRANCH  47  48
ATOM     48  NZ  ALA A  1       -4.988  -1.895   3.960  0.00  0.00    +0.378 N 
ATOM     49  HZ1 ALA A  1       -4.738  -2.874   3.964  0.00  0.00    -0.090 HD
ATOM     50  HZ2 ALA A  1       -4.643  -1.456   4.802  0.00  0.00    -0.090 HD
ATOM     51  HZ3 ALA A  1       -5.993  -1.806   3.925  0.00  0.00    -0.090 HD
ENDBRANCH  47  48
ENDBRANCH  46  47
ENDBRANCH  45  46
ENDBRANCH  44  45
ENDBRANCH   5  44
ENDBRANCH   1   5
BRANCH   3  52
ATOM     52  CA  ALA A  1        3.752  -0.200  -0.240  0.00  0.00    +0.184 C 
BRANCH  52  53
ATOM     53  N   ALA A  1        4.422  -1.017  -1.247  0.00  0.00    -0.301 N 
ATOM     54  H   ALA A  1        4.010  -0.985  -2.168  0.00  0.00    +0.150 HD
ATOM     55  C   ALA A  1        5.427  -1.873  -1.007  0.00  0.00    +0.234 C 
ATOM     56  O   ALA A  1        6.000  -1.995   0.077  0.00  0.00    -0.274 OA
BRANCH  55  57
ATOM     57  CA  ALA A  1        5.794  -2.801  -2.180  0.00  0.00    +0.163 C 
BRANCH  57  58
ATOM     58  N   ALA A  1        7.220  -3.125  -2.226  0.00  0.00    -0.302 N 
ATOM     59  H   ALA A  1        7.468  -4.058  -1.933  0.00  0.00    +0.150 HD
ATOM     60  C   ALA A  1        8.190  -2.274  -2.597  0.00  0.00    +0.234 C 
ATOM     61  O   ALA A  1        7.999  -1.114  -2.965  0.00  0.00    -0.274 OA
BRANCH  60  62
ATOM     62  CA  ALA A  1        9.627  -2.820  -2.518  0.00  0.00    +0.159 C 
BRANCH  62  63
ATOM     63  N   ALA A  1       10.365  -2.581  -3.759  0.00  0.00    -0.302 N 
ATOM     64  H   ALA A  1       11.098  -1.889  -3.706  0.00  0.00    +0.150 HD
ATOM     65  C   ALA A  1       10.121  -3.183  -4.938  0.00  0.00    +0.234 C 
ATOM     66  O   ALA A  1        9.248  -4.036  -5.103  0.00  0.00    -0.274 OA
BRANCH  65  67
ATOM     67  CA  ALA A  1       11.010  -2.756  -6.123  0.00  0.00    +0.156 C 
ATOM     68  CB  ALA A  1       10.880  -3.698  -7.334  0.00  0.00    +0.038 C 
BRANCH  67  69
ATOM     69  N   ALA A  1       12.419  -2.696  -5.731  0.00  0.00    -0.303 N 
ATOM     70  H   ALA A  1       12.894  -3.585  -5.683  0.00  0.00    +0.149 HD
ATOM     71  C   UNK A  0       13.090  -1.584  -5.375  0.00  0.00    +0.231 C 
ATOM     72  O   UNK A  0       12.582  -0.464  -5.397  0.00  0.00    -0.274 OA
BRANCH  71  73
ATOM     73  C   UNK A  0       14.545  -1.730  -4.891  0.00  0.00    +0.200 C 
BRANCH  73  74
ATOM     74  N   UNK A  0       14.911  -3.113  -4.572  0.00  0.00    -0.307 N 
ATOM     75  H   UNK A  0       15.507  -3.585  -5.237  0.00  0.00    +0.149 HD
ATOM     76  C   UNK A  0       14.515  -3.772  -3.469  0.00  0.00    +0.210 C 
ATOM     77  O   UNK A  0       13.791  -3.278  -2.606  0.00  0.00    -0.276 OA
ATOM     78  C   UNK A  0       15.002  -5.209  -3.317  0.00  0.00    +0.109 C 
ENDBRANCH  73  74
ENDBRANCH  71  73
ENDBRANCH  67  69
ENDBRANCH  65  67
ENDBRANCH  62  63
BRANCH  62  79
ATOM     79  CB  ALA A  1       10.429  -2.213  -1.345  0.00  0.00    +0.041 C 
BRANCH  79  80
ATOM     80  CG  ALA A  1        9.764  -2.359   0.042  0.00  0.00    +0.098 C 
BRANCH  80  81
ATOM     81  CD  ALA A  1       10.629  -1.822   1.187  0.00  0.00    +0.211 C 
ATOM     82  OE1 ALA A  1       11.857  -1.845   1.123  0.00  0.00    -0.276 OA
ATOM     83  NE2 ALA A  1        9.983  -1.361   2.260  0.00  0.00    -0.329 N 
ATOM     84 HE21 ALA A  1       10.502  -1.004   3.050  0.00  0.00    +0.145 HD
ATOM     85 HE22 ALA A  1        8.974  -1.364   2.291  0.00  0.00    +0.145 HD
ENDBRANCH  80  81
ENDBRANCH  79  80
ENDBRANCH  62  79
ENDBRANCH  60  62
ENDBRANCH  57  58
BRANCH  57  86
ATOM     86  CB  ALA A  1        4.982  -4.120  -2.177  0.00  0.00    +0.067 C 
BRANCH  86  87
ATOM     87  CG  ALA A  1        3.480  -3.987  -1.962  0.00  0.00    -0.045 A 
ATOM     88  CD2 ALA A  1        2.650  -3.554  -3.019  0.00  0.00    +0.004 A 
ATOM     89  CE2 ALA A  1        1.301  -3.316  -2.790  0.00  0.00    +0.000 A 
ATOM     90  CZ  ALA A  1        0.766  -3.478  -1.518  0.00  0.00    +0.000 A 
ATOM     91  CE1 ALA A  1        1.576  -3.873  -0.461  0.00  0.00    +0.000 A 
ATOM     92  CD1 ALA A  1        2.927  -4.117  -0.669  0.00  0.00    +0.004 A 
ENDBRANCH  86  87
ENDBRANCH  57  86
ENDBRANCH  55  57
ENDBRANCH  52  53
BRANCH  52  93
ATOM     93  CB  ALA A  1        4.470   1.161  -0.093  0.00  0.00    +0.187 C 
BRANCH  93  94
ATOM     94  O   ALA A  1        4.272   2.012  -1.205  0.00  0.00    -0.393 OA
ATOM     95  H   ALA A  1        4.722   2.844  -1.039  0.00  0.00    +0.209 HD
ENDBRANCH  93  94
ENDBRANCH  52  93
ENDBRANCH   3  52
TORSDOF 40
