REMARK  Name = DB14529
REMARK                            x       y       z     vdW  Elec       q    Type
REMARK                         _______ _______ _______ _____ _____    ______ ____
ROOT
ATOM      1  C   LIG    1       -2.123   1.155   0.000  0.00  0.00    +0.020 A 
ATOM      2  C   LIG    1       -2.752  -0.087   0.000  0.00  0.00    +0.111 A 
ATOM      3  N   LIG    1       -2.070  -1.258   0.000  0.00  0.00    -0.262 NA
ATOM      4  C   LIG    1       -0.714  -1.200   0.000  0.00  0.00    +0.125 A 
ATOM      5  C   LIG    1        0.025   0.001   0.000  0.00  0.00    +0.077 A 
ATOM      6  C   LIG    1       -0.728   1.194   0.000  0.00  0.00    +0.018 A 
ENDROOT
BRANCH   5   7
ATOM      7  C   LIG    1        1.538   0.009   0.000  0.00  0.00    +0.338 C 
ATOM      8  O   LIG    1        2.146  -1.088   0.000  0.00  0.00    -0.245 OA
BRANCH   7   9
ATOM      9  O   LIG    1        2.134   1.113   0.000  0.00  0.00    -0.477 OA
ATOM     10  H   LIG    1        1.643   1.911   0.000  0.00  0.00    +0.295 HD
ENDBRANCH   7   9
ENDBRANCH   5   7
TORSDOF 2
