REMARK  Name = DB14199
REMARK                            x       y       z     vdW  Elec       q    Type
REMARK                         _______ _______ _______ _____ _____    ______ ____
ROOT
ATOM      1  C   LIG    1       -0.048  -0.005   0.010  0.00  0.00    +0.122 C 
ATOM      2 BR   LIG    1       -0.740   1.866   0.051  0.00  0.00    -0.067 Br
ENDROOT
BRANCH   1   3
ATOM      3  C   LIG    1       -0.562  -0.745   1.263  0.00  0.00    +0.113 C 
ATOM      4 BR   LIG    1       -2.556  -0.809   1.316  0.00  0.00    -0.089 Br
ENDBRANCH   1   3
BRANCH   1   5
ATOM      5  C   LIG    1       -0.585  -0.599  -1.228  0.00  0.00    +0.081 C 
ATOM      6  N   LIG    1       -1.006  -1.065  -2.200  0.00  0.00    -0.195 NA
ENDBRANCH   1   5
BRANCH   1   7
ATOM      7  C   LIG    1        1.497   0.059  -0.007  0.00  0.00    +0.049 C 
BRANCH   7   8
ATOM      8  C   LIG    1        2.098   0.667  -1.287  0.00  0.00    +0.121 C 
BRANCH   8   9
ATOM      9  C   LIG    1        3.568   0.713  -1.258  0.00  0.00    +0.063 C 
ATOM     10  N   LIG    1        4.724   0.749  -1.235  0.00  0.00    -0.197 NA
ENDBRANCH   8   9
ENDBRANCH   7   8
ENDBRANCH   1   7
TORSDOF 5
