REMARK  Name = DB14544
REMARK                            x       y       z     vdW  Elec       q    Type
REMARK                         _______ _______ _______ _____ _____    ______ ____
ROOT
ATOM      1  C   LIG    1       -1.667  -4.527  -1.472  0.00  0.00    +0.008 C 
ATOM      2  C   LIG    1       -2.148  -5.475  -2.587  0.00  0.00    +0.032 C 
ATOM      3  C   LIG    1       -1.226  -5.284  -3.789  0.00  0.00    -0.060 C 
ATOM      4  C   LIG    1       -1.258  -3.852  -4.394  0.00  0.00    -0.005 C 
ATOM      5  C   LIG    1       -2.711  -3.536  -4.860  0.00  0.00    +0.016 C 
ATOM      6  C   LIG    1       -0.732  -2.901  -3.241  0.00  0.00    +0.031 C 
ATOM      7  C   LIG    1       -0.497  -1.398  -3.636  0.00  0.00    +0.119 C 
ATOM      8  C   LIG    1        0.004  -0.550  -2.431  0.00  0.00    +0.043 C 
ATOM      9  C   LIG    1       -0.894  -0.653  -1.155  0.00  0.00    +0.020 C 
ATOM     10  C   LIG    1       -2.313  -0.037  -1.414  0.00  0.00    +0.016 C 
ATOM     11  C   LIG    1       -0.284  -0.098   0.195  0.00  0.00    +0.179 C 
ATOM     12  C   LIG    1       -1.072  -0.909   1.284  0.00  0.00    +0.057 C 
ATOM     13  C   LIG    1       -1.507  -2.233   0.626  0.00  0.00    +0.009 C 
ATOM     14  C   LIG    1       -0.948  -2.163  -0.801  0.00  0.00    +0.003 C 
ATOM     15  C   LIG    1       -0.358  -3.816  -5.678  0.00  0.00    +0.019 C 
ATOM     16  C   LIG    1        0.948  -4.628  -5.596  0.00  0.00    +0.080 C 
ATOM     17  C   LIG    1        0.653  -6.080  -5.207  0.00  0.00    +0.156 C 
ATOM     18  O   LIG    1        1.315  -7.023  -5.633  0.00  0.00    -0.293 OA
ATOM     19  C   LIG    1       -0.367  -6.253  -4.184  0.00  0.00    +0.046 C 
ATOM     20  C   LIG    1       -1.574  -3.045  -1.918  0.00  0.00    -0.001 C 
ENDROOT
BRANCH   7  21
ATOM     21  O   LIG    1       -1.601  -0.779  -4.265  0.00  0.00    -0.391 OA
ATOM     22  H   LIG    1       -1.831  -1.289  -5.045  0.00  0.00    +0.210 HD
ENDBRANCH   7  21
BRANCH  11  23
ATOM     23  C   LIG    1       -0.401   1.459   0.359  0.00  0.00    +0.202 C 
ATOM     24  O   LIG    1       -1.137   1.952   1.218  0.00  0.00    -0.291 OA
BRANCH  23  25
ATOM     25  C   LIG    1        0.442   2.348  -0.578  0.00  0.00    +0.234 C 
BRANCH  25  26
ATOM     26  O   LIG    1        0.331   3.711  -0.211  0.00  0.00    -0.387 OA
ATOM     27  H   LIG    1        0.691   3.820   0.673  0.00  0.00    +0.210 HD
ENDBRANCH  25  26
ENDBRANCH  23  25
ENDBRANCH  11  23
BRANCH  11  28
ATOM     28  O   LIG    1        1.136  -0.419   0.237  0.00  0.00    -0.450 OA
BRANCH  28  29
ATOM     29  C   LIG    1        1.990  -0.223   1.291  0.00  0.00    +0.308 C 
ATOM     30  O   LIG    1        1.696   0.276   2.379  0.00  0.00    -0.251 OA
BRANCH  29  31
ATOM     31  C   LIG    1        3.409  -0.697   0.959  0.00  0.00    +0.120 C 
BRANCH  31  32
ATOM     32  C   LIG    1        4.440  -0.491   2.088  0.00  0.00    +0.011 C 
BRANCH  32  33
ATOM     33  C   LIG    1        5.845  -0.980   1.698  0.00  0.00    -0.003 C 
ATOM     34  C   LIG    1        6.876  -0.793   2.819  0.00  0.00    +0.004 C 
ENDBRANCH  32  33
ENDBRANCH  31  32
ENDBRANCH  29  31
ENDBRANCH  28  29
ENDBRANCH  11  28
TORSDOF 9
