REMARK  Name = DB14196
REMARK                            x       y       z     vdW  Elec       q    Type
REMARK                         _______ _______ _______ _____ _____    ______ ____
ROOT
ATOM      1  C   LIG    1        1.359   0.168   0.108  0.00  0.00    +0.027 A 
ATOM      2  C   LIG    1        2.025   1.343   0.481  0.00  0.00    +0.025 A 
ATOM      3  C   LIG    1        3.414   1.363   0.571  0.00  0.00    +0.025 A 
ATOM      4  C   LIG    1        4.156   0.207   0.304  0.00  0.00    +0.031 A 
ATOM      5  C   LIG    1        3.493  -0.956  -0.089  0.00  0.00    +0.025 A 
ATOM      6  C   LIG    1        2.103  -0.978  -0.178  0.00  0.00    +0.025 A 
ENDROOT
BRANCH   1   7
ATOM      7  N   LIG    1       -0.041   0.070  -0.004  0.00  0.00    -0.341 N 
ATOM      8  H   LIG    1       -0.374  -0.684  -0.587  0.00  0.00    +0.146 HD
BRANCH   7   9
ATOM      9  C   LIG    1       -0.926   1.231   0.090  0.00  0.00    +0.070 C 
ATOM     10  C   LIG    1       -0.911   2.005  -1.250  0.00  0.00    +0.022 C 
ATOM     11  C   LIG    1       -1.917   3.173  -1.237  0.00  0.00    +0.002 C 
ATOM     12  C   LIG    1       -3.339   2.703  -0.868  0.00  0.00    +0.000 C 
ATOM     13  C   LIG    1       -3.362   1.901   0.449  0.00  0.00    +0.002 C 
ATOM     14  C   LIG    1       -2.350   0.738   0.434  0.00  0.00    +0.022 C 
ENDBRANCH   7   9
ENDBRANCH   1   7
BRANCH   4  15
ATOM     15  N   LIG    1        5.560   0.168   0.360  0.00  0.00    -0.314 N 
ATOM     16  H   LIG    1        5.966  -0.532  -0.243  0.00  0.00    +0.152 HD
BRANCH  15  17
ATOM     17  C   LIG    1        6.513   0.968   1.014  0.00  0.00    +0.031 A 
ATOM     18  C   LIG    1        6.197   1.811   2.088  0.00  0.00    +0.023 A 
ATOM     19  C   LIG    1        7.192   2.567   2.701  0.00  0.00    +0.002 A 
ATOM     20  C   LIG    1        8.507   2.476   2.250  0.00  0.00    +0.000 A 
ATOM     21  C   LIG    1        8.836   1.626   1.197  0.00  0.00    +0.002 A 
ATOM     22  C   LIG    1        7.840   0.868   0.586  0.00  0.00    +0.023 A 
ENDBRANCH  15  17
ENDBRANCH   4  15
TORSDOF 4
