REMARK  Name = DB14200
REMARK                            x       y       z     vdW  Elec       q    Type
REMARK                         _______ _______ _______ _____ _____    ______ ____
ROOT
ATOM      1  C   LIG    1       -0.954   6.077   1.254  0.00  0.00    +0.002 A 
ATOM      2  C   LIG    1       -1.034   4.716   1.553  0.00  0.00    +0.029 A 
ATOM      3  C   LIG    1       -0.537   3.797   0.616  0.00  0.00    +0.080 A 
ATOM      4  N   LIG    1       -0.549   2.446   0.768  0.00  0.00    -0.231 NA
ATOM      5  C   LIG    1       -0.025   1.840  -0.260  0.00  0.00    +0.150 A 
ATOM      6  S   LIG    1        0.556   2.876  -1.546  0.00  0.00    -0.060 S 
ATOM      7  C   LIG    1        0.032   4.261  -0.600  0.00  0.00    +0.040 A 
ATOM      8  C   LIG    1        0.107   5.630  -0.889  0.00  0.00    +0.017 A 
ATOM      9  C   LIG    1       -0.395   6.525   0.057  0.00  0.00    +0.001 A 
ENDROOT
BRANCH   5  10
ATOM     10  S   LIG    1        0.125   0.096  -0.376  0.00  0.00    -0.016 S 
BRANCH  10  11
ATOM     11  N   LIG    1        1.878  -0.121  -0.104  0.00  0.00    -0.255 NA
ATOM     12  H   LIG    1        2.286  -0.635  -0.872  0.00  0.00    +0.136 HD
BRANCH  11  13
ATOM     13  C   LIG    1        2.276  -0.656   1.191  0.00  0.00    +0.065 C 
ATOM     14  C   LIG    1        3.792  -0.963   1.238  0.00  0.00    +0.019 C 
ATOM     15  C   LIG    1        4.221  -1.600   2.575  0.00  0.00    +0.002 C 
ATOM     16  C   LIG    1        3.801  -0.739   3.781  0.00  0.00    +0.000 C 
ATOM     17  C   LIG    1        2.297  -0.408   3.750  0.00  0.00    +0.002 C 
ATOM     18  C   LIG    1        1.870   0.218   2.407  0.00  0.00    +0.019 C 
ENDBRANCH  11  13
ENDBRANCH  10  11
ENDBRANCH   5  10
TORSDOF 3
