REMARK  Name = DB14966
REMARK                            x       y       z     vdW  Elec       q    Type
REMARK                         _______ _______ _______ _____ _____    ______ ____
ROOT
ATOM      1  C   LIG    1       -0.637  -0.467  -1.430  0.00  0.00    +0.038 C 
ATOM      2  C   LIG    1       -0.130   0.253  -0.152  0.00  0.00    +0.075 C 
ATOM      3  C   LIG    1       -0.503  -0.631   1.062  0.00  0.00    +0.038 C 
ENDROOT
BRANCH   2   4
ATOM      4  C   LIG    1       -0.797   1.637   0.010  0.00  0.00    +0.072 A 
ATOM      5  N   LIG    1       -0.409   2.383   1.036  0.00  0.00    -0.242 NA
ATOM      6  C   LIG    1       -1.017   3.546   1.107  0.00  0.00    +0.109 A 
ATOM      7  S   LIG    1       -2.181   3.800  -0.163  0.00  0.00    -0.075 S 
ATOM      8  C   LIG    1       -1.781   2.230  -0.784  0.00  0.00    +0.072 A 
BRANCH   6   9
ATOM      9  C   LIG    1       -0.742   4.569   2.177  0.00  0.00    +0.007 A 
ATOM     10  C   LIG    1       -1.448   5.781   2.239  0.00  0.00    +0.013 A 
ATOM     11  C   LIG    1       -1.177   6.709   3.240  0.00  0.00    +0.039 A 
ATOM     12  C   LIG    1       -0.197   6.436   4.190  0.00  0.00    +0.123 A 
ATOM     13  F   LIG    1        0.065   7.338   5.164  0.00  0.00    -0.205 F 
ATOM     14  C   LIG    1        0.514   5.241   4.145  0.00  0.00    +0.039 A 
ATOM     15  C   LIG    1        0.243   4.314   3.143  0.00  0.00    +0.013 A 
ENDBRANCH   6   9
ENDBRANCH   2   4
BRANCH   2  16
ATOM     16  N   LIG    1        1.343   0.354  -0.196  0.00  0.00    -0.271 N 
ATOM     17  H   LIG    1        1.861  -0.353   0.305  0.00  0.00    +0.153 HD
ATOM     18  C   LIG    1        2.064   1.162  -1.068  0.00  0.00    +0.401 C 
ATOM     19  O   LIG    1        1.600   1.980  -1.866  0.00  0.00    -0.226 OA
BRANCH  18  20
ATOM     20  O   LIG    1        3.381   0.903  -0.912  0.00  0.00    -0.449 OA
BRANCH  20  21
ATOM     21  C   LIG    1        4.382   1.607  -1.651  0.00  0.00    +0.165 C 
ATOM     22  C   LIG    1        5.715   1.631  -0.850  0.00  0.00    +0.025 C 
ATOM     23  C   LIG    1        6.731   2.467  -1.670  0.00  0.00    -0.012 C 
ATOM     24  C   LIG    1        6.961   1.867  -3.085  0.00  0.00    -0.078 C 
ATOM     25  N   LIG    1        6.074   0.606  -3.249  0.00  0.00    +0.382 N 
ATOM     26  H   LIG    1        6.212   0.212  -4.169  0.00  0.00    -0.082 HD
ATOM     27  C   LIG    1        6.458  -0.442  -2.173  0.00  0.00    -0.078 C 
ATOM     28  C   LIG    1        6.254   0.177  -0.764  0.00  0.00    -0.012 C 
ATOM     29  C   LIG    1        4.586   1.006  -3.076  0.00  0.00    -0.033 C 
ENDBRANCH  20  21
ENDBRANCH  18  20
ENDBRANCH   2  16
TORSDOF 5
