REMARK  Name = DB14120
REMARK                            x       y       z     vdW  Elec       q    Type
REMARK                         _______ _______ _______ _____ _____    ______ ____
ROOT
ATOM      1  C   LIG    1        1.574  -0.266   0.095  0.00  0.00    +0.001 A 
ATOM      2  C   LIG    1        2.263  -0.995  -0.892  0.00  0.00    +0.124 A 
ATOM      3  C   LIG    1        3.658  -1.048  -0.880  0.00  0.00    +0.091 A 
ATOM      4  C   LIG    1        4.380  -0.378   0.107  0.00  0.00    +0.120 A 
ATOM      5  C   LIG    1        3.707   0.350   1.086  0.00  0.00    +0.046 A 
ATOM      6  C   LIG    1        2.314   0.406   1.078  0.00  0.00    +0.011 A 
ENDROOT
BRANCH   1   7
ATOM      7  C   LIG    1        0.041  -0.180   0.119  0.00  0.00    +0.049 C 
ATOM      8  C   LIG    1       -0.440   1.193  -0.402  0.00  0.00    +0.017 C 
BRANCH   7  12
ATOM      9  C   LIG    1       -1.614  -1.472   3.902  0.00  0.00    +0.000 A 
ATOM     10  C   LIG    1       -1.633  -0.117   3.583  0.00  0.00    +0.000 A 
ATOM     11  C   LIG    1       -1.106   0.315   2.369  0.00  0.00    +0.004 A 
ATOM     12  C   LIG    1       -0.556  -0.609   1.469  0.00  0.00    -0.040 A 
ATOM     13  C   LIG    1       -0.543  -1.968   1.804  0.00  0.00    +0.004 A 
ATOM     14  C   LIG    1       -1.072  -2.400   3.017  0.00  0.00    +0.000 A 
ENDBRANCH   7  12
ENDBRANCH   1   7
BRANCH   2  15
ATOM     15  O   LIG    1        1.597  -1.665  -1.887  0.00  0.00    -0.506 OA
ATOM     16  H   LIG    1        2.189  -2.115  -2.494  0.00  0.00    +0.292 HD
ENDBRANCH   2  15
BRANCH   4  17
ATOM     17  O   LIG    1        5.748  -0.435   0.115  0.00  0.00    -0.507 OA
ATOM     18  H   LIG    1        6.104  -0.969  -0.599  0.00  0.00    +0.292 HD
ENDBRANCH   4  17
TORSDOF 4
