REMARK  Name = DB14763
REMARK                            x       y       z     vdW  Elec       q    Type
REMARK                         _______ _______ _______ _____ _____    ______ ____
ROOT
ATOM      1  N   LIG    1       -0.592   1.141  -0.020  0.00  0.00    -0.070 NA
ATOM      2  C   LIG    1       -0.046  -0.015  -0.010  0.00  0.00    +0.420 C 
ATOM      3  N   LIG    1       -0.669  -1.255   0.040  0.00  0.00    -0.009 NA
ATOM      4  C   LIG    1       -1.947  -1.300   0.092  0.00  0.00    +0.383 C 
ATOM      5  N   LIG    1       -2.783  -0.119   0.091  0.00  0.00    -0.154 N 
ATOM      6  C   LIG    1       -2.073   1.204   0.024  0.00  0.00    +0.235 C 
ATOM      7  C   LIG    1       -2.465   1.964  -1.267  0.00  0.00    +0.096 C 
ATOM      8  C   LIG    1       -2.389   2.034   1.294  0.00  0.00    +0.096 C 
ENDROOT
BRANCH   5   9
ATOM      9  C   LIG    1       -4.169  -0.200   0.185  0.00  0.00    +0.098 A 
ATOM     10  C   LIG    1       -4.779  -0.326   1.438  0.00  0.00    +0.042 A 
ATOM     11  C   LIG    1       -6.167  -0.388   1.540  0.00  0.00    +0.023 A 
ATOM     12  C   LIG    1       -6.947  -0.321   0.387  0.00  0.00    +0.041 A 
ATOM     13  C   LIG    1       -6.349  -0.189  -0.865  0.00  0.00    +0.023 A 
ATOM     14 CL   LIG    1       -8.666  -0.398   0.511  0.00  0.00    -0.084 Cl
ATOM     15  C   LIG    1       -4.962  -0.126  -0.965  0.00  0.00    +0.042 A 
ENDBRANCH   5   9
BRANCH   2  16
ATOM     16  N   LIG    1        1.325  -0.032  -0.054  0.00  0.00    -0.247 N 
ATOM     17  H   LIG    1        1.825  -0.908  -0.049  0.00  0.00    +0.241 HD
ATOM     18  H   LIG    1        1.845   0.832  -0.093  0.00  0.00    +0.241 HD
ENDBRANCH   2  16
BRANCH   4  19
ATOM     19  N   LIG    1       -2.526  -2.590   0.146  0.00  0.00    -0.251 N 
ATOM     20  H   LIG    1       -3.403  -2.726  -0.335  0.00  0.00    +0.241 HD
ATOM     21  H   LIG    1       -1.911  -3.377   0.000  0.00  0.00    +0.241 HD
ENDBRANCH   4  19
TORSDOF 3
