REMARK  Name = DB14985
REMARK                            x       y       z     vdW  Elec       q    Type
REMARK                         _______ _______ _______ _____ _____    ______ ____
ROOT
ATOM      1  C   LIG    1        1.444  -0.236   0.049  0.00  0.00    +0.049 A 
ATOM      2  N   LIG    1        2.128  -0.045  -1.122  0.00  0.00    -0.216 N 
ATOM      3  N   LIG    1        1.608   0.249  -2.335  0.00  0.00    -0.153 NA
ATOM      4  C   LIG    1        2.685   0.328  -3.086  0.00  0.00    +0.246 A 
ATOM      5  N   LIG    1        3.856   0.124  -2.518  0.00  0.00    -0.214 NA
ATOM      6  C   LIG    1        3.521  -0.127  -1.223  0.00  0.00    +0.172 A 
ATOM      7  C   LIG    1        4.298  -0.415  -0.072  0.00  0.00    +0.122 A 
ATOM      8  C   LIG    1        3.581  -0.630   1.147  0.00  0.00    +0.134 A 
ATOM      9  C   LIG    1        2.183  -0.533   1.190  0.00  0.00    +0.069 A 
ENDROOT
BRANCH   7  10
ATOM     10  C   LIG    1        5.810  -0.497  -0.178  0.00  0.00    +0.252 C 
ATOM     11  O   LIG    1        6.336  -1.200  -1.042  0.00  0.00    -0.270 OA
ATOM     12  N   LIG    1        6.502   0.273   0.680  0.00  0.00    -0.301 N 
ATOM     13  H   LIG    1        5.998   0.802   1.378  0.00  0.00    +0.150 HD
BRANCH  12  14
ATOM     14  C   LIG    1        7.967   0.375   0.718  0.00  0.00    +0.225 C 
BRANCH  14  15
ATOM     15  C   LIG    1        8.493   1.385   1.770  0.00  0.00    +0.322 C 
ATOM     16  O   LIG    1        7.698   2.034   2.492  0.00  0.00    -0.249 OA
BRANCH  15  17
ATOM     17  O   LIG    1        9.738   1.499   1.836  0.00  0.00    -0.480 OA
ATOM     18  H   LIG    1       10.122   2.093   2.451  0.00  0.00    +0.295 HD
ENDBRANCH  15  17
ENDBRANCH  14  15
ENDBRANCH  12  14
ENDBRANCH   7  10
BRANCH   8  19
ATOM     19  O   LIG    1        4.138  -0.943   2.257  0.00  0.00    -0.506 OA
ATOM     20  H   LIG    1        3.615  -1.071   3.024  0.00  0.00    +0.292 HD
ENDBRANCH   8  19
BRANCH   1  21
ATOM     21  C   LIG    1       -0.076  -0.101   0.089  0.00  0.00    +0.060 C 
BRANCH  21  22
ATOM     22  C   LIG    1       -0.571   1.361   0.043  0.00  0.00    +0.041 C 
BRANCH  22  26
ATOM     23  C   LIG    1        0.845   3.753   3.328  0.00  0.00    +0.000 A 
ATOM     24  C   LIG    1        1.562   3.729   2.133  0.00  0.00    +0.000 A 
ATOM     25  C   LIG    1        1.101   2.960   1.068  0.00  0.00    +0.003 A 
ATOM     26  C   LIG    1       -0.074   2.215   1.203  0.00  0.00    -0.047 A 
ATOM     27  C   LIG    1       -0.788   2.243   2.404  0.00  0.00    +0.003 A 
ATOM     28  C   LIG    1       -0.328   3.014   3.468  0.00  0.00    +0.000 A 
ENDBRANCH  22  26
ENDBRANCH  21  22
ENDBRANCH   1  21
TORSDOF 8
