REMARK  Name = DB14791
REMARK                            x       y       z     vdW  Elec       q    Type
REMARK                         _______ _______ _______ _____ _____    ______ ____
ROOT
ATOM      1  C   LIG    1        1.820   1.478   0.013  0.00  0.00    +0.166 A 
ATOM      2  C   LIG    1        2.232   2.011  -1.228  0.00  0.00    +0.055 A 
ATOM      3  C   LIG    1        2.325   1.501  -2.541  0.00  0.00    +0.030 A 
ATOM      4  C   LIG    1        2.076   0.256  -3.142  0.00  0.00    +0.014 A 
ATOM      5  C   LIG    1        2.283   0.139  -4.518  0.00  0.00    +0.020 A 
ATOM      6  C   LIG    1        2.728   1.249  -5.239  0.00  0.00    +0.113 A 
ATOM      7  N   LIG    1        2.990   2.467  -4.695  0.00  0.00    -0.237 NA
ATOM      8  C   LIG    1        2.785   2.551  -3.377  0.00  0.00    +0.139 A 
ATOM      9  N   LIG    1        2.990   3.665  -2.591  0.00  0.00    -0.338 N 
ATOM     10  H   LIG    1        3.325   4.557  -2.924  0.00  0.00    +0.167 HD
ATOM     11  C   LIG    1        2.674   3.363  -1.280  0.00  0.00    +0.071 A 
ATOM     12  C   LIG    1        2.722   4.132  -0.116  0.00  0.00    +0.138 A 
ATOM     13  N   LIG    1        2.368   3.600   1.078  0.00  0.00    -0.239 NA
ATOM     14  C   LIG    1        1.938   2.316   1.141  0.00  0.00    +0.182 A 
ENDROOT
BRANCH  14  15
ATOM     15  C   LIG    1        1.649   1.873   2.497  0.00  0.00    +0.123 C 
ATOM     16  N   LIG    1        1.419   1.524   3.576  0.00  0.00    -0.189 NA
ENDBRANCH  14  15
BRANCH   1  17
ATOM     17  O   LIG    1        1.366   0.172   0.020  0.00  0.00    -0.485 OA
BRANCH  17  22
ATOM     18  N   LIG    1       -0.694  -2.895  -0.076  0.00  0.00    +0.380 N 
ATOM     19  H   LIG    1       -1.630  -2.839   0.301  0.00  0.00    -0.082 HD
ATOM     20  C   LIG    1       -0.575  -1.897  -1.252  0.00  0.00    -0.075 C 
ATOM     21  C   LIG    1       -0.863  -0.468  -0.749  0.00  0.00    +0.026 C 
ATOM     22  C   LIG    1        0.014  -0.035   0.446  0.00  0.00    +0.170 C 
ATOM     23  C   LIG    1       -0.040  -1.104   1.558  0.00  0.00    +0.026 C 
ATOM     24  C   LIG    1        0.290  -2.519   1.056  0.00  0.00    -0.075 C 
BRANCH  18  26
ATOM     25  C   LIG    1       -1.546  -4.873  -1.444  0.00  0.00    -0.017 C 
ATOM     26  C   LIG    1       -0.426  -4.352  -0.528  0.00  0.00    -0.082 C 
ENDBRANCH  18  26
ENDBRANCH  17  22
ENDBRANCH   1  17
TORSDOF 4
