REMARK  Name = DB14925
REMARK                            x       y       z     vdW  Elec       q    Type
REMARK                         _______ _______ _______ _____ _____    ______ ____
ROOT
ATOM      1  O   LIG    1       -0.384  -4.981  -3.801  0.00  0.00    -0.306 OA
ENDROOT
BRANCH   1   2
ATOM      2  P   LIG    1       -1.366  -6.407  -3.890  0.00  0.00    +0.356 P 
ATOM      3  O   LIG    1       -2.564  -6.227  -2.982  0.00  0.00    -0.256 OA
BRANCH   2   4
ATOM      4  O   LIG    1       -1.504  -6.768  -5.353  0.00  0.00    -0.322 OA
ATOM      5  H   LIG    1       -2.123  -6.156  -5.780  0.00  0.00    +0.220 HD
ENDBRANCH   2   4
BRANCH   2   6
ATOM      6  C   LIG    1       -0.164  -7.604  -3.085  0.00  0.00    +0.286 C 
BRANCH   6   7
ATOM      7  O   LIG    1        1.053  -7.579  -3.821  0.00  0.00    -0.363 OA
BRANCH   7   8
ATOM      8  C   LIG    1        1.990  -8.617  -3.536  0.00  0.00    +0.136 C 
ATOM      9  C   LIG    1        2.591  -8.474  -2.124  0.00  0.00    +0.040 C 
BRANCH   8  10
ATOM     10  C   LIG    1        3.086  -8.549  -4.619  0.00  0.00    +0.156 C 
BRANCH  10  11
ATOM     11  N   LIG    1        2.532  -8.755  -5.967  0.00  0.00    -0.312 N 
ATOM     12  C   LIG    1        2.166  -9.943  -6.532  0.00  0.00    +0.165 A 
ATOM     13  N   LIG    1        2.234 -11.197  -6.018  0.00  0.00    -0.216 NA
ATOM     14  C   LIG    1        1.781 -12.107  -6.895  0.00  0.00    +0.225 A 
ATOM     15  N   LIG    1        1.305 -11.929  -8.136  0.00  0.00    -0.219 NA
ATOM     16  C   LIG    1        1.249 -10.657  -8.620  0.00  0.00    +0.147 A 
ATOM     17  C   LIG    1        1.697  -9.603  -7.790  0.00  0.00    +0.147 A 
ATOM     18  N   LIG    1        1.763  -8.275  -7.991  0.00  0.00    -0.231 NA
ATOM     19  C   LIG    1        2.259  -7.798  -6.875  0.00  0.00    +0.201 A 
BRANCH  16  20
ATOM     20  N   LIG    1        0.759 -10.454  -9.909  0.00  0.00    -0.341 N 
ATOM     21  H   LIG    1        0.456 -11.248 -10.454  0.00  0.00    +0.144 HD
ATOM     22  H   LIG    1        0.697  -9.513 -10.271  0.00  0.00    +0.144 HD
ENDBRANCH  16  20
ENDBRANCH  10  11
ENDBRANCH   8  10
ENDBRANCH   7   8
ENDBRANCH   6   7
ENDBRANCH   2   6
ENDBRANCH   1   2
BRANCH   1  23
ATOM     23  C   LIG    1       -0.113  -4.418  -2.526  0.00  0.00    +0.172 C 
BRANCH  23  24
ATOM     24  C   LIG    1        1.402  -4.461  -2.273  0.00  0.00    +0.056 C 
BRANCH  24  25
ATOM     25  C   LIG    1        1.817  -3.863  -0.921  0.00  0.00    +0.162 C 
BRANCH  25  26
ATOM     26  O   LIG    1        1.486  -2.482  -0.887  0.00  0.00    -0.380 OA
BRANCH  26  27
ATOM     27  C   LIG    1        1.832  -1.841   0.333  0.00  0.00    +0.160 C 
BRANCH  27  28
ATOM     28  C   LIG    1        1.427  -0.359   0.272  0.00  0.00    +0.028 C 
BRANCH  28  29
ATOM     29  C   LIG    1       -0.093  -0.144   0.121  0.00  0.00    +0.002 C 
BRANCH  29  30
ATOM     30  C   LIG    1       -0.534   1.332   0.178  0.00  0.00    +0.000 C 
BRANCH  30  31
ATOM     31  C   LIG    1       -0.061   2.183  -1.018  0.00  0.00    +0.000 C 
BRANCH  31  32
ATOM     32  C   LIG    1       -0.570   3.634  -0.959  0.00  0.00    +0.000 C 
BRANCH  32  33
ATOM     33  C   LIG    1       -0.119   4.477  -2.165  0.00  0.00    -0.000 C 
BRANCH  33  34
ATOM     34  C   LIG    1       -0.624   5.930  -2.107  0.00  0.00    -0.000 C 
BRANCH  34  35
ATOM     35  C   LIG    1       -0.204   6.757  -3.338  0.00  0.00    -0.000 C 
BRANCH  35  36
ATOM     36  C   LIG    1       -0.750   8.199  -3.355  0.00  0.00    -0.000 C 
BRANCH  36  37
ATOM     37  C   LIG    1       -0.168   9.110  -2.257  0.00  0.00    -0.000 C 
BRANCH  37  38
ATOM     38  C   LIG    1       -0.658  10.565  -2.364  0.00  0.00    -0.000 C 
BRANCH  38  39
ATOM     39  C   LIG    1       -0.069  11.477  -1.273  0.00  0.00    -0.000 C 
BRANCH  39  40
ATOM     40  C   LIG    1       -0.558  12.933  -1.379  0.00  0.00    -0.000 C 
BRANCH  40  42
ATOM     41  C   LIG    1       -0.462  15.294  -0.391  0.00  0.00    +0.004 C 
ATOM     42  C   LIG    1        0.026  13.843  -0.284  0.00  0.00    -0.003 C 
ENDBRANCH  40  42
ENDBRANCH  39  40
ENDBRANCH  38  39
ENDBRANCH  37  38
ENDBRANCH  36  37
ENDBRANCH  35  36
ENDBRANCH  34  35
ENDBRANCH  33  34
ENDBRANCH  32  33
ENDBRANCH  31  32
ENDBRANCH  30  31
ENDBRANCH  29  30
ENDBRANCH  28  29
ENDBRANCH  27  28
ENDBRANCH  26  27
ENDBRANCH  25  26
ENDBRANCH  24  25
ENDBRANCH  23  24
ENDBRANCH   1  23
TORSDOF 27
