REMARK  Name = DB14178
REMARK                            x       y       z     vdW  Elec       q    Type
REMARK                         _______ _______ _______ _____ _____    ______ ____
ROOT
ATOM      1  S   LIG    1        1.180  -0.622   0.000  0.00  0.00    -0.044 S 
ENDROOT
BRANCH   1   2
ATOM      2  C   LIG    1       -0.569  -0.142  -0.000  0.00  0.00    +0.115 C 
ATOM      3  S   LIG    1       -1.864  -1.210  -0.000  0.00  0.00    -0.028 S 
BRANCH   2   5
ATOM      4  C   LIG    1       -2.026   1.933   0.000  0.00  0.00    +0.130 C 
ATOM      5  N   LIG    1       -0.718   1.245   0.000  0.00  0.00    -0.325 N 
ATOM      6  C   LIG    1        0.378   2.237   0.000  0.00  0.00    +0.130 C 
ENDBRANCH   2   5
ENDBRANCH   1   2
BRANCH   1   7
ATOM      7  C   LIG    1        1.723  -2.353   0.000  0.00  0.00    +0.115 C 
ATOM      8  S   LIG    1        0.703  -3.685   0.000  0.00  0.00    -0.028 S 
BRANCH   7   9
ATOM      9  N   LIG    1        3.114  -2.451   0.000  0.00  0.00    -0.325 N 
ATOM     10  C   LIG    1        3.849  -3.734   0.000  0.00  0.00    +0.130 C 
ATOM     11  C   LIG    1        4.066  -1.320   0.000  0.00  0.00    +0.130 C 
ENDBRANCH   7   9
ENDBRANCH   1   7
TORSDOF 4
