REMARK  Name = DB14539
REMARK                            x       y       z     vdW  Elec       q    Type
REMARK                         _______ _______ _______ _____ _____    ______ ____
ROOT
ATOM      1  C   LIG    1       -4.057  -2.471   1.301  0.00  0.00    +0.008 C 
ATOM      2  C   LIG    1       -4.843  -3.411   2.220  0.00  0.00    +0.032 C 
ATOM      3  C   LIG    1       -4.939  -2.797   3.618  0.00  0.00    -0.060 C 
ATOM      4  C   LIG    1       -3.577  -2.443   4.284  0.00  0.00    -0.005 C 
ATOM      5  C   LIG    1       -2.916  -3.793   4.683  0.00  0.00    +0.016 C 
ATOM      6  C   LIG    1       -2.725  -1.572   3.265  0.00  0.00    +0.031 C 
ATOM      7  C   LIG    1       -1.331  -1.068   3.800  0.00  0.00    +0.119 C 
ATOM      8  C   LIG    1       -0.573  -0.219   2.740  0.00  0.00    +0.041 C 
ATOM      9  C   LIG    1       -0.426  -0.922   1.354  0.00  0.00    +0.009 C 
ATOM     10  C   LIG    1        0.472  -2.205   1.462  0.00  0.00    +0.015 C 
ATOM     11  C   LIG    1        0.026   0.001   0.155  0.00  0.00    +0.133 C 
ATOM     12  C   LIG    1       -0.525  -0.754  -1.097  0.00  0.00    +0.043 C 
ATOM     13  C   LIG    1       -1.738  -1.578  -0.612  0.00  0.00    +0.008 C 
ATOM     14  C   LIG    1       -1.866  -1.244   0.882  0.00  0.00    +0.002 C 
ATOM     15  C   LIG    1       -3.839  -1.600   5.578  0.00  0.00    +0.019 C 
ATOM     16  C   LIG    1       -5.038  -2.056   6.432  0.00  0.00    +0.080 C 
ATOM     17  C   LIG    1       -6.311  -2.136   5.586  0.00  0.00    +0.156 C 
ATOM     18  O   LIG    1       -7.424  -1.900   6.051  0.00  0.00    -0.293 OA
ATOM     19  C   LIG    1       -6.135  -2.639   4.232  0.00  0.00    +0.046 C 
ATOM     20  C   LIG    1       -2.634  -2.207   1.834  0.00  0.00    -0.001 C 
ENDROOT
BRANCH   7  21
ATOM     21  O   LIG    1       -0.490  -2.081   4.313  0.00  0.00    -0.391 OA
ATOM     22  H   LIG    1       -0.951  -2.525   5.029  0.00  0.00    +0.210 HD
ENDBRANCH   7  21
BRANCH  11  23
ATOM     23  C   LIG    1        1.573   0.216   0.100  0.00  0.00    +0.202 C 
ATOM     24  O   LIG    1        2.298  -0.529  -0.565  0.00  0.00    -0.291 OA
BRANCH  23  25
ATOM     25  C   LIG    1        2.180   1.392   0.888  0.00  0.00    +0.309 C 
BRANCH  25  26
ATOM     26  O   LIG    1        3.602   1.305   0.930  0.00  0.00    -0.457 OA
BRANCH  26  27
ATOM     27  C   LIG    1        4.326   2.216   1.609  0.00  0.00    +0.304 C 
ATOM     28  C   LIG    1        5.822   1.941   1.526  0.00  0.00    +0.136 C 
ATOM     29  O   LIG    1        3.885   3.177   2.240  0.00  0.00    -0.251 OA
ENDBRANCH  26  27
ENDBRANCH  25  26
ENDBRANCH  23  25
ENDBRANCH  11  23
BRANCH  11  30
ATOM     30  O   LIG    1       -0.542   1.307   0.200  0.00  0.00    -0.380 OA
ATOM     31  H   LIG    1       -1.497   1.224   0.157  0.00  0.00    +0.211 HD
ENDBRANCH  11  30
TORSDOF 6
