REMARK  Name = DB14862
REMARK                            x       y       z     vdW  Elec       q    Type
REMARK                         _______ _______ _______ _____ _____    ______ ____
ROOT
ATOM      1  C   LIG    1        2.309  -1.725  -1.677  0.00  0.00    +0.021 A 
ATOM      2  C   LIG    1        3.095  -2.883  -1.611  0.00  0.00    +0.132 A 
ATOM      3  F   LIG    1        4.006  -3.047  -0.623  0.00  0.00    -0.205 F 
ATOM      4  C   LIG    1        2.929  -3.898  -2.552  0.00  0.00    +0.052 A 
ATOM      5  C   LIG    1        1.989  -3.776  -3.587  0.00  0.00    +0.040 A 
ATOM      6  C   LIG    1        1.195  -2.623  -3.634  0.00  0.00    +0.014 A 
ATOM      7  C   LIG    1        1.359  -1.606  -2.695  0.00  0.00    +0.012 A 
ENDROOT
BRANCH   1  13
ATOM      8  C   LIG    1        1.448   0.087  -0.022  0.00  0.00    +0.115 A 
ATOM      9  N   LIG    1        2.119   0.953   0.816  0.00  0.00    -0.263 N 
ATOM     10  C   LIG    1        1.558   1.933   1.737  0.00  0.00    +0.173 C 
ATOM     11  N   LIG    1        3.449   0.854   0.719  0.00  0.00    -0.179 NA
ATOM     12  C   LIG    1        3.644  -0.099  -0.158  0.00  0.00    +0.143 A 
ATOM     13  C   LIG    1        2.452  -0.633  -0.671  0.00  0.00    +0.033 A 
BRANCH   8  15
ATOM     14  N   LIG    1       -0.743  -1.154   0.159  0.00  0.00    -0.184 N 
ATOM     15  C   LIG    1       -0.009  -0.007  -0.088  0.00  0.00    +0.204 A 
ATOM     16  N   LIG    1       -0.808   1.006  -0.322  0.00  0.00    -0.106 NA
ATOM     17  N   LIG    1       -2.095   0.491  -0.251  0.00  0.00    -0.023 NA
ATOM     18  N   LIG    1       -2.047  -0.854   0.051  0.00  0.00    -0.040 NA
BRANCH  14  19
ATOM     19  C   LIG    1       -0.292  -2.507   0.492  0.00  0.00    +0.300 C 
ATOM     20  C   LIG    1       -1.377  -3.525   0.880  0.00  0.00    +0.079 C 
BRANCH  19  21
ATOM     21  O   LIG    1        0.768  -2.540   1.432  0.00  0.00    -0.408 OA
BRANCH  21  22
ATOM     22  C   LIG    1        0.613  -1.971   2.668  0.00  0.00    +0.512 C 
ATOM     23  O   LIG    1       -0.427  -1.509   3.148  0.00  0.00    -0.203 OA
BRANCH  22  24
ATOM     24  O   LIG    1        1.826  -1.960   3.249  0.00  0.00    -0.434 OA
BRANCH  24  26
ATOM     25  C   LIG    1        3.515  -1.313   4.837  0.00  0.00    +0.048 C 
ATOM     26  C   LIG    1        2.018  -1.350   4.518  0.00  0.00    +0.232 C 
ENDBRANCH  24  26
ENDBRANCH  22  24
ENDBRANCH  21  22
ENDBRANCH  19  21
ENDBRANCH  14  19
ENDBRANCH   8  15
ENDBRANCH   1  13
BRANCH   5  27
ATOM     27  C   LIG    1        1.779  -4.876  -4.610  0.00  0.00    +0.252 C 
ATOM     28  N   LIG    1        2.855  -5.573  -5.102  0.00  0.00    -0.250 N 
ATOM     29  O   LIG    1        0.620  -5.123  -4.955  0.00  0.00    -0.270 OA
BRANCH  28  30
ATOM     30  C   LIG    1        2.661  -6.760  -5.970  0.00  0.00    +0.066 C 
ATOM     31  C   LIG    1        1.815  -7.917  -5.366  0.00  0.00    -0.059 C 
ATOM     32  N   LIG    1        1.831  -9.145  -6.296  0.00  0.00    +0.380 N 
ATOM     33  H   LIG    1        2.772  -9.506  -6.359  0.00  0.00    -0.086 HD
ATOM     34  H   LIG    1        1.258  -9.875  -5.897  0.00  0.00    -0.086 HD
ATOM     35  C   LIG    1        1.319  -8.805  -7.707  0.00  0.00    -0.082 C 
ATOM     36  C   LIG    1        2.204  -7.702  -8.315  0.00  0.00    -0.017 C 
ATOM     37  C   LIG    1        2.281  -6.437  -7.439  0.00  0.00    +0.019 C 
ENDBRANCH  28  30
BRANCH  28  38
ATOM     38  C   LIG    1        4.145  -4.995  -5.155  0.00  0.00    +0.146 A 
ATOM     39  C   LIG    1        5.216  -5.580  -4.453  0.00  0.00    +0.081 A 
ATOM     40 CL   LIG    1        5.028  -7.016  -3.503  0.00  0.00    -0.080 Cl
ATOM     41  C   LIG    1        6.472  -4.970  -4.522  0.00  0.00    +0.025 A 
ATOM     42  C   LIG    1        6.638  -3.809  -5.278  0.00  0.00    +0.021 A 
ATOM     43  C   LIG    1        5.534  -3.289  -5.950  0.00  0.00    +0.113 A 
ATOM     44  N   LIG    1        4.305  -3.862  -5.900  0.00  0.00    -0.238 NA
ENDBRANCH  28  38
ENDBRANCH   5  27
TORSDOF 10
