REMARK  Name = DB14219
REMARK                            x       y       z     vdW  Elec       q    Type
REMARK                         _______ _______ _______ _____ _____    ______ ____
ROOT
ATOM      1  C   LIG    1       -0.746   1.188   0.000  0.00  0.00    +0.098 C 
ATOM      2  C   LIG    1        0.004   0.064   0.000  0.00  0.00    +0.098 C 
ENDROOT
BRANCH   1   3
ATOM      3  C   LIG    1       -2.188   1.153   0.000  0.00  0.00    +0.330 C 
ATOM      4  O   LIG    1       -2.873   0.130   0.000  0.00  0.00    -0.246 OA
BRANCH   3   5
ATOM      5  O   LIG    1       -2.718   2.410   0.000  0.00  0.00    -0.478 OA
ATOM      6  H   LIG    1       -3.677   2.401   0.000  0.00  0.00    +0.295 HD
ENDBRANCH   3   5
ENDBRANCH   1   3
BRANCH   2   7
ATOM      7  C   LIG    1        1.463   0.095   0.000  0.00  0.00    +0.332 C 
ATOM      8  O   LIG    1        2.126   1.136   0.000  0.00  0.00    -0.246 OA
BRANCH   7   9
ATOM      9  O   LIG    1        1.989  -1.150   0.000  0.00  0.00    -0.465 OA
ATOM     10  C   LIG    1        3.397  -1.344   0.000  0.00  0.00    +0.280 C 
ENDBRANCH   7   9
ENDBRANCH   2   7
TORSDOF 4
