REMARK  Name = DB14849
REMARK                            x       y       z     vdW  Elec       q    Type
REMARK                         _______ _______ _______ _____ _____    ______ ____
ROOT
ATOM      1  C   LIG    1       -2.164  -1.237   0.000  0.00  0.00    +0.161 A 
ATOM      2  C   LIG    1       -0.768  -1.220   0.000  0.00  0.00    +0.060 A 
ATOM      3  C   LIG    1       -0.055  -0.014   0.000  0.00  0.00    +0.024 A 
ATOM      4  C   LIG    1       -0.777   1.185   0.000  0.00  0.00    +0.048 A 
ATOM      5  C   LIG    1       -2.175   1.196   0.000  0.00  0.00    +0.167 A 
ATOM      6  C   LIG    1       -2.888  -0.023   0.000  0.00  0.00    +0.189 A 
ENDROOT
BRANCH   1   7
ATOM      7  O   LIG    1       -2.770  -2.477   0.000  0.00  0.00    -0.503 OA
ATOM      8  H   LIG    1       -2.140  -3.201   0.000  0.00  0.00    +0.292 HD
ENDBRANCH   1   7
BRANCH   3   9
ATOM      9  C   LIG    1        1.446   0.025   0.000  0.00  0.00    +0.168 C 
ATOM     10  O   LIG    1        2.083   1.083   0.000  0.00  0.00    -0.292 OA
BRANCH   9  11
ATOM     11  C   LIG    1        2.189  -1.330   0.000  0.00  0.00    +0.114 C 
BRANCH  11  12
ATOM     12  C   LIG    1        3.708  -1.179   0.000  0.00  0.00    -0.040 A 
ATOM     13  C   LIG    1        4.402  -1.121  -1.211  0.00  0.00    +0.004 A 
ATOM     14  C   LIG    1        5.789  -0.994  -1.211  0.00  0.00    +0.000 A 
ATOM     15  C   LIG    1        6.476  -0.930   0.000  0.00  0.00    +0.000 A 
ATOM     16  C   LIG    1        5.789  -0.994   1.211  0.00  0.00    +0.000 A 
ATOM     17  C   LIG    1        4.402  -1.121   1.211  0.00  0.00    +0.004 A 
ENDBRANCH  11  12
ENDBRANCH   9  11
ENDBRANCH   3   9
BRANCH   5  18
ATOM     18  N   LIG    1       -2.844   2.509   0.000  0.00  0.00    +0.010 N 
ATOM     19  O   LIG    1       -3.102   3.015   1.087  0.00  0.00    -0.130 OA
BRANCH  18  20
ATOM     20  O   LIG    1       -3.102   3.015  -1.087  0.00  0.00    -0.396 OA
ATOM     21  H   LIG    1       -2.874   2.567  -1.878  0.00  0.00    +0.329 HD
ENDBRANCH  18  20
ENDBRANCH   5  18
BRANCH   6  22
ATOM     22  O   LIG    1       -4.170  -0.029   0.000  0.00  0.00    -0.502 OA
ATOM     23  H   LIG    1       -4.635  -0.843   0.000  0.00  0.00    +0.292 HD
ENDBRANCH   6  22
TORSDOF 7
