REMARK  Name = DB14980
REMARK                            x       y       z     vdW  Elec       q    Type
REMARK                         _______ _______ _______ _____ _____    ______ ____
ROOT
ATOM      1  C   LIG    1       -0.594  -0.735   1.237  0.00  0.00    +0.016 A 
ATOM      2  C   LIG    1       -1.905  -1.388   1.364  0.00  0.00    +0.147 A 
ATOM      3  N   LIG    1       -2.687  -1.551   0.347  0.00  0.00    -0.214 NA
ATOM      4  C   LIG    1       -3.908  -2.155   0.481  0.00  0.00    +0.129 A 
ATOM      5  C   LIG    1       -4.335  -2.601   1.692  0.00  0.00    +0.114 A 
ATOM      6  C   LIG    1       -3.518  -2.456   2.883  0.00  0.00    +0.260 A 
ATOM      7  O   LIG    1       -3.934  -2.868   3.969  0.00  0.00    -0.267 OA
ATOM      8  N   LIG    1       -2.305  -1.836   2.641  0.00  0.00    -0.268 N 
ATOM      9  C   LIG    1       -1.442  -1.644   3.713  0.00  0.00    +0.099 A 
ATOM     10  C   LIG    1       -0.233  -1.046   3.662  0.00  0.00    -0.033 A 
ATOM     11  C   LIG    1        0.662  -0.901   4.877  0.00  0.00    +0.045 C 
ATOM     12  C   LIG    1        0.180  -0.580   2.345  0.00  0.00    +0.013 A 
ENDROOT
BRANCH   4  13
ATOM     13  N   LIG    1       -4.645  -2.268  -0.694  0.00  0.00    -0.311 N 
ATOM     14  C   LIG    1       -6.083  -2.588  -0.680  0.00  0.00    +0.134 C 
ATOM     15  C   LIG    1       -6.787  -2.107  -1.966  0.00  0.00    +0.178 C 
ATOM     16  O   LIG    1       -6.152  -2.669  -3.105  0.00  0.00    -0.377 OA
ATOM     17  C   LIG    1       -4.796  -2.256  -3.190  0.00  0.00    +0.178 C 
ATOM     18  C   LIG    1       -4.015  -2.732  -1.946  0.00  0.00    +0.134 C 
ENDBRANCH   4  13
BRANCH   1  20
ATOM     19  C   LIG    1       -0.591   1.181  -0.436  0.00  0.00    +0.033 C 
ATOM     20  C   LIG    1       -0.088  -0.240  -0.132  0.00  0.00    +0.101 C 
BRANCH  20  21
ATOM     21  N   LIG    1        1.355  -0.323  -0.374  0.00  0.00    -0.337 N 
ATOM     22  H   LIG    1        1.874   0.521  -0.171  0.00  0.00    +0.147 HD
BRANCH  21  23
ATOM     23  C   LIG    1        2.101  -1.518  -0.249  0.00  0.00    +0.042 A 
ATOM     24  C   LIG    1        3.507  -1.510   0.020  0.00  0.00    +0.080 A 
ATOM     25  C   LIG    1        4.159  -2.763   0.068  0.00  0.00    +0.017 A 
ATOM     26  C   LIG    1        3.483  -3.963  -0.128  0.00  0.00    +0.001 A 
ATOM     27  C   LIG    1        2.121  -3.953  -0.383  0.00  0.00    +0.002 A 
ATOM     28  C   LIG    1        1.441  -2.744  -0.445  0.00  0.00    +0.024 A 
BRANCH  24  29
ATOM     29  C   LIG    1        4.328  -0.253   0.303  0.00  0.00    +0.339 C 
ATOM     30  O   LIG    1        5.580  -0.327   0.253  0.00  0.00    -0.245 OA
BRANCH  29  31
ATOM     31  O   LIG    1        3.754   0.820   0.602  0.00  0.00    -0.477 OA
ATOM     32  H   LIG    1        4.260   1.590   0.775  0.00  0.00    +0.295 HD
ENDBRANCH  29  31
ENDBRANCH  24  29
ENDBRANCH  21  23
ENDBRANCH  20  21
ENDBRANCH   1  20
TORSDOF 6
