REMARK  Name = DB14649
REMARK                            x       y       z     vdW  Elec       q    Type
REMARK                         _______ _______ _______ _____ _____    ______ ____
ROOT
ATOM      1  C   LIG    1       -0.468  -0.898   1.342  0.00  0.00    +0.010 C 
ATOM      2  C   LIG    1        0.420  -2.189   1.437  0.00  0.00    +0.015 C 
ATOM      3  C   LIG    1       -0.595  -0.209   2.739  0.00  0.00    +0.044 C 
ATOM      4  C   LIG    1       -1.350  -1.064   3.799  0.00  0.00    +0.154 C 
ATOM      5  C   LIG    1       -2.751  -1.575   3.282  0.00  0.00    +0.153 C 
ATOM      6  C   LIG    1       -2.686  -2.163   1.822  0.00  0.00    +0.034 C 
ATOM      7  C   LIG    1       -4.104  -2.483   1.291  0.00  0.00    +0.011 C 
ATOM      8  C   LIG    1       -4.887  -3.421   2.224  0.00  0.00    +0.032 C 
ATOM      9  C   LIG    1       -4.954  -2.799   3.618  0.00  0.00    -0.053 C 
ATOM     10  C   LIG    1       -6.134  -2.504   4.215  0.00  0.00    +0.051 C 
ATOM     11  C   LIG    1       -6.282  -1.884   5.532  0.00  0.00    +0.179 C 
ATOM     12  O   LIG    1       -7.373  -1.648   6.046  0.00  0.00    -0.288 OA
ATOM     13  C   LIG    1       -5.010  -1.565   6.174  0.00  0.00    +0.047 C 
ATOM     14  C   LIG    1       -3.806  -1.834   5.631  0.00  0.00    -0.009 C 
ATOM     15  F   LIG    1       -3.471  -0.447   3.185  0.00  0.00    -0.238 F 
ATOM     16  C   LIG    1       -3.569  -2.511   4.269  0.00  0.00    +0.044 C 
ATOM     17  C   LIG    1       -2.900  -3.882   4.572  0.00  0.00    +0.023 C 
ATOM     18  C   LIG    1       -0.018   0.033   0.147  0.00  0.00    +0.135 C 
ATOM     19  C   LIG    1       -0.564  -0.732  -1.115  0.00  0.00    +0.026 C 
ATOM     20  C   LIG    1       -1.809  -1.513  -0.624  0.00  0.00    +0.011 C 
ATOM     21  C   LIG    1       -0.824   0.131  -2.368  0.00  0.00    +0.011 C 
ATOM     22  C   LIG    1       -1.916  -1.197   0.876  0.00  0.00    +0.005 C 
ENDROOT
BRANCH   4  23
ATOM     23  O   LIG    1       -0.505  -2.073   4.316  0.00  0.00    -0.389 OA
ATOM     24  H   LIG    1       -0.962  -2.514   5.036  0.00  0.00    +0.210 HD
ENDBRANCH   4  23
BRANCH  18  25
ATOM     25  O   LIG    1       -0.577   1.343   0.235  0.00  0.00    -0.380 OA
ATOM     26  H   LIG    1       -1.534   1.266   0.214  0.00  0.00    +0.211 HD
ENDBRANCH  18  25
BRANCH  18  27
ATOM     27  C   LIG    1        1.531   0.249   0.098  0.00  0.00    +0.202 C 
ATOM     28  O   LIG    1        2.256  -0.486  -0.578  0.00  0.00    -0.291 OA
BRANCH  27  29
ATOM     29  C   LIG    1        2.140   1.413   0.903  0.00  0.00    +0.309 C 
BRANCH  29  30
ATOM     30  O   LIG    1        3.561   1.316   0.954  0.00  0.00    -0.457 OA
BRANCH  30  31
ATOM     31  C   LIG    1        4.286   2.215   1.649  0.00  0.00    +0.304 C 
ATOM     32  C   LIG    1        5.780   1.930   1.577  0.00  0.00    +0.136 C 
ATOM     33  O   LIG    1        3.846   3.174   2.285  0.00  0.00    -0.251 OA
ENDBRANCH  30  31
ENDBRANCH  29  30
ENDBRANCH  27  29
ENDBRANCH  18  27
TORSDOF 6
