REMARK  Name = DB14077
REMARK                            x       y       z     vdW  Elec       q    Type
REMARK                         _______ _______ _______ _____ _____    ______ ____
ROOT
ATOM      1  C   LIG    1       -0.767   1.519   0.121  0.00  0.00    -0.000 C 
ENDROOT
BRANCH   1   2
ATOM      2  C   LIG    1       -2.306   1.499   0.122  0.00  0.00    +0.000 C 
BRANCH   2   3
ATOM      3  C   LIG    1       -2.925   2.908   0.158  0.00  0.00    +0.000 C 
BRANCH   3   4
ATOM      4  C   LIG    1       -4.464   2.887   0.130  0.00  0.00    +0.000 C 
BRANCH   4   5
ATOM      5  C   LIG    1       -5.084   4.296   0.161  0.00  0.00    +0.001 C 
BRANCH   5   6
ATOM      6  C   LIG    1       -6.627   4.273   0.133  0.00  0.00    +0.011 C 
BRANCH   6   7
ATOM      7  C   LIG    1       -7.295   5.670   0.239  0.00  0.00    +0.120 C 
BRANCH   7   8
ATOM      8  C   LIG    1       -7.037   6.618  -0.958  0.00  0.00    +0.305 C 
ATOM      9  O   LIG    1       -7.007   7.844  -0.706  0.00  0.00    -0.251 OA
BRANCH   8  10
ATOM     10  O   LIG    1       -6.916   6.133  -2.107  0.00  0.00    -0.481 OA
ATOM     11  H   LIG    1       -6.947   5.204  -2.229  0.00  0.00    +0.295 HD
ENDBRANCH   8  10
ENDBRANCH   7   8
ENDBRANCH   6   7
ENDBRANCH   5   6
ENDBRANCH   4   5
ENDBRANCH   3   4
ENDBRANCH   2   3
ENDBRANCH   1   2
BRANCH   1  12
ATOM     12  C   LIG    1       -0.150   0.110   0.067  0.00  0.00    -0.000 C 
BRANCH  12  13
ATOM     13  C   LIG    1        1.389   0.129   0.022  0.00  0.00    -0.000 C 
BRANCH  13  14
ATOM     14  C   LIG    1        2.001  -1.282  -0.059  0.00  0.00    -0.000 C 
BRANCH  14  15
ATOM     15  C   LIG    1        3.543  -1.311  -0.056  0.00  0.00    -0.000 C 
BRANCH  15  16
ATOM     16  C   LIG    1        4.192  -0.668  -1.298  0.00  0.00    -0.000 C 
BRANCH  16  17
ATOM     17  C   LIG    1        5.724  -0.834  -1.327  0.00  0.00    -0.000 C 
BRANCH  17  18
ATOM     18  C   LIG    1        6.401  -0.267  -2.591  0.00  0.00    -0.000 C 
BRANCH  18  19
ATOM     19  C   LIG    1        6.324   1.267  -2.720  0.00  0.00    -0.000 C 
BRANCH  19  20
ATOM     20  C   LIG    1        7.087   1.804  -3.943  0.00  0.00    -0.003 C 
ATOM     21  C   LIG    1        7.021   3.333  -4.065  0.00  0.00    +0.004 C 
ENDBRANCH  19  20
ENDBRANCH  18  19
ENDBRANCH  17  18
ENDBRANCH  16  17
ENDBRANCH  15  16
ENDBRANCH  14  15
ENDBRANCH  13  14
ENDBRANCH  12  13
ENDBRANCH   1  12
TORSDOF 17
