REMARK  Name = DB14543
REMARK                            x       y       z     vdW  Elec       q    Type
REMARK                         _______ _______ _______ _____ _____    ______ ____
ROOT
ATOM      1  C   LIG    1       -1.655  -1.327   0.835  0.00  0.00    +0.003 C 
ATOM      2  C   LIG    1       -1.338  -1.896  -0.556  0.00  0.00    +0.009 C 
ATOM      3  C   LIG    1       -0.083  -1.127  -1.021  0.00  0.00    +0.057 C 
ATOM      4  C   LIG    1        0.274  -0.125   0.130  0.00  0.00    +0.180 C 
ATOM      5  C   LIG    1       -0.291  -0.863   1.408  0.00  0.00    +0.020 C 
ATOM      6  C   LIG    1        0.630  -2.065   1.821  0.00  0.00    +0.016 C 
ATOM      7  C   LIG    1       -0.612   0.035   2.645  0.00  0.00    +0.043 C 
ATOM      8  C   LIG    1       -1.482  -0.662   3.730  0.00  0.00    +0.119 C 
ATOM      9  C   LIG    1       -2.793  -1.289   3.125  0.00  0.00    +0.031 C 
ATOM     10  C   LIG    1       -3.746  -2.034   4.148  0.00  0.00    -0.005 C 
ATOM     11  C   LIG    1       -3.142  -3.348   4.731  0.00  0.00    +0.016 C 
ATOM     12  C   LIG    1       -4.149  -1.143   5.373  0.00  0.00    +0.019 C 
ATOM     13  C   LIG    1       -5.246  -0.097   5.101  0.00  0.00    +0.080 C 
ATOM     14  C   LIG    1       -6.491  -0.767   4.513  0.00  0.00    +0.156 C 
ATOM     15  O   LIG    1       -7.629  -0.371   4.755  0.00  0.00    -0.293 OA
ATOM     16  C   LIG    1       -6.230  -1.809   3.532  0.00  0.00    +0.046 C 
ATOM     17  C   LIG    1       -5.023  -2.388   3.333  0.00  0.00    -0.060 C 
ATOM     18  C   LIG    1       -4.776  -3.341   2.167  0.00  0.00    +0.032 C 
ATOM     19  C   LIG    1       -3.822  -2.639   1.184  0.00  0.00    +0.008 C 
ATOM     20  C   LIG    1       -2.504  -2.154   1.840  0.00  0.00    -0.001 C 
ENDROOT
BRANCH   4  21
ATOM     21  C   LIG    1        1.800   0.214   0.246  0.00  0.00    +0.214 C 
ATOM     22  O   LIG    1        2.656  -0.507  -0.272  0.00  0.00    -0.289 OA
BRANCH  21  23
ATOM     23  C   LIG    1        2.213   1.500   0.995  0.00  0.00    +0.310 C 
BRANCH  23  24
ATOM     24  O   LIG    1        3.568   1.471   1.451  0.00  0.00    -0.457 OA
BRANCH  24  25
ATOM     25  C   LIG    1        3.923   0.842   2.598  0.00  0.00    +0.307 C 
ATOM     26  O   LIG    1        3.156   0.257   3.366  0.00  0.00    -0.251 OA
BRANCH  25  27
ATOM     27  C   LIG    1        5.430   0.949   2.858  0.00  0.00    +0.117 C 
ATOM     28  C   LIG    1        5.891   0.352   4.199  0.00  0.00    +0.015 C 
ENDBRANCH  25  27
ENDBRANCH  24  25
ENDBRANCH  23  24
ENDBRANCH  21  23
ENDBRANCH   4  21
BRANCH   8  29
ATOM     29  O   LIG    1       -0.707  -1.558   4.500  0.00  0.00    -0.391 OA
ATOM     30  H   LIG    1       -1.253  -1.899   5.212  0.00  0.00    +0.210 HD
ENDBRANCH   8  29
BRANCH   4  31
ATOM     31  O   LIG    1       -0.436   1.135  -0.039  0.00  0.00    -0.450 OA
BRANCH  31  32
ATOM     32  C   LIG    1       -0.335   1.996  -1.100  0.00  0.00    +0.308 C 
ATOM     33  O   LIG    1        0.378   1.853  -2.093  0.00  0.00    -0.251 OA
BRANCH  32  34
ATOM     34  C   LIG    1       -1.216   3.233  -0.925  0.00  0.00    +0.120 C 
BRANCH  34  35
ATOM     35  C   LIG    1       -0.782   4.114   0.264  0.00  0.00    +0.008 C 
ATOM     36  C   LIG    1       -1.669   5.355   0.427  0.00  0.00    +0.004 C 
ENDBRANCH  34  35
ENDBRANCH  32  34
ENDBRANCH  31  32
ENDBRANCH   4  31
TORSDOF 10
