REMARK  Name = DB14184
REMARK                            x       y       z     vdW  Elec       q    Type
REMARK                         _______ _______ _______ _____ _____    ______ ____
ROOT
ATOM      1  C   LIG    1       -0.661   1.159   0.000  0.00  0.00    +0.008 A 
ATOM      2  C   LIG    1       -0.006  -0.078   0.000  0.00  0.00    -0.025 A 
ATOM      3  C   LIG    1       -0.769  -1.256   0.000  0.00  0.00    +0.008 A 
ATOM      4  C   LIG    1       -2.160  -1.193   0.000  0.00  0.00    +0.001 A 
ATOM      5  C   LIG    1       -2.796   0.045   0.000  0.00  0.00    +0.000 A 
ATOM      6  C   LIG    1       -2.052   1.222   0.000  0.00  0.00    +0.001 A 
ENDROOT
BRANCH   2   7
ATOM      7  C   LIG    1        1.473  -0.091   0.000  0.00  0.00    +0.011 C 
ATOM      8  C   LIG    1        2.267  -1.181   0.000  0.00  0.00    +0.043 C 
BRANCH   8   9
ATOM      9  C   LIG    1        3.711  -1.059   0.000  0.00  0.00    +0.251 C 
ATOM     10  O   LIG    1        4.452  -2.039   0.000  0.00  0.00    -0.296 OA
ENDBRANCH   8   9
ENDBRANCH   2   7
TORSDOF 2
