REMARK  Name = DB14156
REMARK                            x       y       z     vdW  Elec       q    Type
REMARK                         _______ _______ _______ _____ _____    ______ ____
ROOT
ATOM      1  C   LIG    1        0.015  -0.012   0.027  0.00  0.00    -0.020 C 
ATOM      2  C   LIG    1       -0.417  -0.886   1.244  0.00  0.00    +0.012 C 
ATOM      3  C   LIG    1        1.580   0.010   0.063  0.00  0.00    +0.012 C 
ATOM      4  C   LIG    1       -0.651  -0.401  -1.328  0.00  0.00    +0.032 C 
ATOM      5  C   LIG    1       -0.156   0.736  -2.264  0.00  0.00    +0.140 C 
ATOM      6  C   LIG    1       -0.150   1.983  -1.364  0.00  0.00    +0.079 C 
ATOM      7  O   LIG    1        0.197   0.663  -3.441  0.00  0.00    -0.297 OA
ATOM      8  C   LIG    1       -0.310  -1.797  -1.891  0.00  0.00    +0.019 C 
ATOM      9  C   LIG    1       -2.168  -0.141  -1.085  0.00  0.00    +0.015 C 
ATOM     10  C   LIG    1       -2.163   1.091  -0.149  0.00  0.00    +0.005 C 
ATOM     11  C   LIG    1       -0.643   1.387  -0.019  0.00  0.00    +0.003 C 
ENDROOT
TORSDOF 0
