REMARK  Name = DB14841
REMARK                            x       y       z     vdW  Elec       q    Type
REMARK                         _______ _______ _______ _____ _____    ______ ____
ROOT
ATOM      1  C   LIG    1        1.522   0.003  -0.019  0.00  0.00    -0.042 A 
ATOM      2  C   LIG    1        2.222  -0.609  -1.059  0.00  0.00    +0.012 A 
ATOM      3  C   LIG    1        3.639  -0.615  -1.067  0.00  0.00    -0.018 A 
ATOM      4  C   LIG    1        4.378  -1.226  -2.111  0.00  0.00    +0.008 A 
ATOM      5  C   LIG    1        5.770  -1.214  -2.087  0.00  0.00    +0.001 A 
ATOM      6  C   LIG    1        6.455  -0.604  -1.041  0.00  0.00    +0.001 A 
ATOM      7  C   LIG    1        5.760   0.005   0.000  0.00  0.00    +0.008 A 
ATOM      8  C   LIG    1        4.343   0.012   0.007  0.00  0.00    -0.018 A 
ATOM      9  C   LIG    1        3.604   0.623   1.051  0.00  0.00    +0.009 A 
ATOM     10  C   LIG    1        2.212   0.611   1.028  0.00  0.00    +0.005 A 
ENDROOT
BRANCH   1  12
ATOM     11  C   LIG    1       -0.797   1.289  -0.001  0.00  0.00    +0.012 C 
ATOM     12  C   LIG    1        0.002  -0.007  -0.014  0.00  0.00    -0.018 C 
ATOM     13  C   LIG    1       -0.715  -1.220   0.608  0.00  0.00    -0.071 C 
ATOM     14  N   LIG    1       -1.642  -1.749  -0.495  0.00  0.00    +0.380 N 
ATOM     15  H   LIG    1       -1.125  -2.385  -1.086  0.00  0.00    -0.086 HD
ATOM     16  H   LIG    1       -2.437  -2.253  -0.127  0.00  0.00    -0.086 HD
ATOM     17  C   LIG    1       -2.048  -0.518  -1.310  0.00  0.00    -0.078 C 
ATOM     18  C   LIG    1       -0.820   0.392  -1.216  0.00  0.00    -0.019 C 
ENDBRANCH   1  12
TORSDOF 1
