REMARK  Name = DB14048
REMARK                            x       y       z     vdW  Elec       q    Type
REMARK                         _______ _______ _______ _____ _____    ______ ____
ROOT
ATOM      1 SI   LIG    1       -0.729  -0.660   1.395  0.00  0.00    +0.000 Si
ATOM      2  O   LIG    1       -0.750   0.993   1.089  0.00  0.00    +0.000 OA
ATOM      3 SI   LIG    1       -0.045   1.684  -0.271  0.00  0.00    +0.000 Si
ATOM      4  O   LIG    1        0.706   0.639  -1.352  0.00  0.00    +0.000 OA
ATOM      5 SI   LIG    1        0.774  -1.024  -1.124  0.00  0.00    +0.000 Si
ATOM      6  O   LIG    1        0.044  -1.632   0.263  0.00  0.00    +0.000 OA
ENDROOT
BRANCH   1   7
ATOM      7  O   LIG    1       -0.011  -0.914   2.893  0.00  0.00    +0.000 OA
ATOM      8  H   LIG    1        0.915  -0.625   2.862  0.00  0.00    +0.000 HD
ENDBRANCH   1   7
BRANCH   1   9
ATOM      9  O   LIG    1       -2.315  -1.191   1.558  0.00  0.00    +0.000 OA
ATOM     10  H   LIG    1       -2.785  -1.068   0.718  0.00  0.00    +0.000 HD
ENDBRANCH   1   9
BRANCH   3  11
ATOM     11  O   LIG    1        1.081   2.825   0.236  0.00  0.00    +0.000 OA
ATOM     12  H   LIG    1        1.792   2.383   0.724  0.00  0.00    +0.000 HD
ENDBRANCH   3  11
BRANCH   3  13
ATOM     13  O   LIG    1       -1.224   2.549  -1.099  0.00  0.00    +0.000 OA
ATOM     14  H   LIG    1       -1.908   1.940  -1.419  0.00  0.00    +0.000 HD
ENDBRANCH   3  13
BRANCH   5  15
ATOM     15  O   LIG    1        0.082  -1.773  -2.461  0.00  0.00    +0.000 OA
ATOM     16  H   LIG    1       -0.857  -1.536  -2.514  0.00  0.00    +0.000 HD
ENDBRANCH   5  15
BRANCH   5  17
ATOM     17  O   LIG    1        2.387  -1.496  -1.127  0.00  0.00    +0.000 OA
ATOM     18  H   LIG    1        2.843  -1.093  -0.372  0.00  0.00    +0.000 HD
ENDBRANCH   5  17
TORSDOF 6
