REMARK  Name = DB14212
REMARK                            x       y       z     vdW  Elec       q    Type
REMARK                         _______ _______ _______ _____ _____    ______ ____
ROOT
ATOM      1  C   LIG    1        1.528   0.015   0.000  0.00  0.00    +0.059 A 
ATOM      2  C   LIG    1        2.247   1.219   0.000  0.00  0.00    +0.018 A 
ATOM      3  C   LIG    1        3.639   1.212   0.000  0.00  0.00    +0.046 A 
ATOM      4  C   LIG    1        4.325   0.000   0.000  0.00  0.00    +0.117 A 
ATOM      5  C   LIG    1        3.627  -1.205   0.000  0.00  0.00    +0.046 A 
ATOM      6  C   LIG    1        2.235  -1.199   0.000  0.00  0.00    +0.018 A 
ENDROOT
BRANCH   1   7
ATOM      7  C   LIG    1        0.027   0.060   0.000  0.00  0.00    +0.339 C 
ATOM      8  O   LIG    1       -0.620   1.112   0.000  0.00  0.00    -0.245 OA
BRANCH   7   9
ATOM      9  O   LIG    1       -0.547  -1.170   0.000  0.00  0.00    -0.464 OA
ATOM     10  C   LIG    1       -1.960  -1.318   0.000  0.00  0.00    +0.280 C 
ENDBRANCH   7   9
ENDBRANCH   1   7
BRANCH   4  11
ATOM     11  O   LIG    1        5.695  -0.005   0.000  0.00  0.00    -0.507 OA
ATOM     12  H   LIG    1        6.066  -0.890   0.000  0.00  0.00    +0.292 HD
ENDBRANCH   4  11
TORSDOF 3
