REMARK  Name = DB14761
REMARK                            x       y       z     vdW  Elec       q    Type
REMARK                         _______ _______ _______ _____ _____    ______ ____
ROOT
ATOM      1  C   LIG    1        0.170  -1.281   2.396  0.00  0.00    +0.206 C 
ENDROOT
BRANCH   1   5
ATOM      2  C   LIG    1       -2.320  -1.210   5.021  0.00  0.00    +0.225 C 
ATOM      3  C   LIG    1       -2.435   0.153   4.317  0.00  0.00    +0.198 C 
ATOM      4  C   LIG    1       -2.151  -0.189   2.849  0.00  0.00    +0.178 C 
ATOM      5  C   LIG    1       -1.252  -1.442   2.955  0.00  0.00    +0.178 C 
ATOM      6  O   LIG    1       -1.157  -1.702   4.357  0.00  0.00    -0.343 OA
BRANCH   2   7
ATOM      7  C   LIG    1       -2.035  -1.132   6.521  0.00  0.00    +0.092 A 
ATOM      8  C   LIG    1       -2.021  -0.047   7.399  0.00  0.00    +0.029 A 
ATOM      9  C   LIG    1       -1.703  -0.460   8.682  0.00  0.00    +0.033 A 
ATOM     10  C   LIG    1       -1.502  -1.860   8.613  0.00  0.00    +0.105 A 
ATOM     11  C   LIG    1       -1.166  -2.911   9.489  0.00  0.00    +0.144 A 
ATOM     12  N   LIG    1       -1.053  -4.193   9.064  0.00  0.00    -0.217 NA
ATOM     13  C   LIG    1       -1.278  -4.427   7.750  0.00  0.00    +0.245 A 
ATOM     14  N   LIG    1       -1.607  -3.518   6.800  0.00  0.00    -0.154 NA
ATOM     15  N   LIG    1       -1.711  -2.254   7.268  0.00  0.00    -0.228 N 
BRANCH  11  16
ATOM     16  N   LIG    1       -0.934  -2.668  10.841  0.00  0.00    -0.341 N 
ATOM     17  H   LIG    1       -0.698  -3.441  11.446  0.00  0.00    +0.144 HD
ATOM     18  H   LIG    1       -1.011  -1.727  11.199  0.00  0.00    +0.144 HD
ENDBRANCH  11  16
ENDBRANCH   2   7
BRANCH   2  19
ATOM     19  C   LIG    1       -3.479  -2.092   4.753  0.00  0.00    +0.107 C 
ATOM     20  N   LIG    1       -4.384  -2.783   4.543  0.00  0.00    -0.193 NA
ENDBRANCH   2  19
BRANCH   3  21
ATOM     21  O   LIG    1       -3.643   0.863   4.534  0.00  0.00    -0.385 OA
ATOM     22  H   LIG    1       -3.609   1.683   4.036  0.00  0.00    +0.210 HD
ENDBRANCH   3  21
BRANCH   4  23
ATOM     23  O   LIG    1       -3.305  -0.453   2.065  0.00  0.00    -0.386 OA
ATOM     24  H   LIG    1       -3.026  -0.815   1.220  0.00  0.00    +0.210 HD
ENDBRANCH   4  23
ENDBRANCH   1   5
BRANCH   1  25
ATOM     25  O   LIG    1        0.080  -1.232   0.983  0.00  0.00    -0.284 OA
BRANCH  25  26
ATOM     26  P   LIG    1        0.693   0.019   0.136  0.00  0.00    +0.462 P 
ATOM     27  O   LIG    1        0.271   1.365   0.613  0.00  0.00    -0.228 OA
BRANCH  26  28
ATOM     28  N   LIG    1        2.362  -0.300   0.124  0.00  0.00    -0.199 NA
ATOM     29  H   LIG    1        2.759  -0.948   0.805  0.00  0.00    +0.135 HD
BRANCH  28  30
ATOM     30  C   LIG    1        3.319   0.546  -0.587  0.00  0.00    +0.171 C 
ATOM     31  C   LIG    1        4.370   1.144   0.373  0.00  0.00    +0.036 C 
BRANCH  30  32
ATOM     32  C   LIG    1        3.953  -0.199  -1.748  0.00  0.00    +0.325 C 
ATOM     33  O   LIG    1        5.142  -0.525  -1.787  0.00  0.00    -0.249 OA
BRANCH  32  34
ATOM     34  O   LIG    1        3.052  -0.436  -2.731  0.00  0.00    -0.463 OA
BRANCH  34  35
ATOM     35  C   LIG    1        3.442  -1.077  -3.941  0.00  0.00    +0.235 C 
BRANCH  35  36
ATOM     36  C   LIG    1        2.212  -1.359  -4.834  0.00  0.00    +0.026 C 
BRANCH  36  37
ATOM     37  C   LIG    1        2.629  -1.811  -6.258  0.00  0.00    +0.003 C 
ATOM     38  C   LIG    1        3.427  -0.768  -7.059  0.00  0.00    +0.004 C 
ENDBRANCH  36  37
BRANCH  36  39
ATOM     39  C   LIG    1        1.255  -2.380  -4.164  0.00  0.00    +0.003 C 
ATOM     40  C   LIG    1       -0.145  -2.459  -4.795  0.00  0.00    +0.004 C 
ENDBRANCH  36  39
ENDBRANCH  35  36
ENDBRANCH  34  35
ENDBRANCH  32  34
ENDBRANCH  30  32
ENDBRANCH  28  30
ENDBRANCH  26  28
BRANCH  26  41
ATOM     41  O   LIG    1        0.239  -0.317  -1.391  0.00  0.00    -0.413 OA
BRANCH  41  42
ATOM     42  C   LIG    1       -1.050  -0.630  -1.724  0.00  0.00    +0.131 A 
ATOM     43  C   LIG    1       -1.519  -1.934  -1.553  0.00  0.00    +0.046 A 
ATOM     44  C   LIG    1       -2.828  -2.250  -1.905  0.00  0.00    +0.004 A 
ATOM     45  C   LIG    1       -3.657  -1.262  -2.433  0.00  0.00    +0.000 A 
ATOM     46  C   LIG    1       -3.189   0.039  -2.614  0.00  0.00    +0.004 A 
ATOM     47  C   LIG    1       -1.879   0.355  -2.261  0.00  0.00    +0.046 A 
ENDBRANCH  41  42
ENDBRANCH  26  41
ENDBRANCH  25  26
ENDBRANCH   1  25
TORSDOF 18
