REMARK  Name = DB14110
REMARK                            x       y       z     vdW  Elec       q    Type
REMARK                         _______ _______ _______ _____ _____    ______ ____
ROOT
ATOM      1  C   LIG    1       -0.072  -0.039  -0.033  0.00  0.00    +0.114 C 
ATOM      2  C   LIG    1       -0.574  -0.783  -1.280  0.00  0.00    +0.037 C 
ENDROOT
BRANCH   1   3
ATOM      3  O   LIG    1       -0.654   1.250  -0.019  0.00  0.00    -0.392 OA
ATOM      4  H   LIG    1       -0.346   1.716   0.762  0.00  0.00    +0.210 HD
ENDBRANCH   1   3
BRANCH   1   5
ATOM      5  C   LIG    1        1.468   0.065   0.014  0.00  0.00    +0.059 C 
BRANCH   5   6
ATOM      6  C   LIG    1        2.015   0.735   1.288  0.00  0.00    +0.158 C 
BRANCH   6   7
ATOM      7  O   LIG    1        3.427   0.741   1.285  0.00  0.00    -0.395 OA
ATOM      8  H   LIG    1        3.733   1.162   2.092  0.00  0.00    +0.209 HD
ENDBRANCH   6   7
ENDBRANCH   5   6
ENDBRANCH   1   5
TORSDOF 4
