REMARK  Name = DB14866
REMARK                            x       y       z     vdW  Elec       q    Type
REMARK                         _______ _______ _______ _____ _____    ______ ____
ROOT
ATOM      1  C   LIG    1        6.872   1.128   0.218  0.00  0.00    +0.039 C 
ATOM      2  C   LIG    1        8.087   0.725   0.666  0.00  0.00    +0.048 C 
ATOM      3  C   LIG    1        9.365   1.424   0.562  0.00  0.00    +0.009 A 
ATOM      4  C   LIG    1        9.736   2.646  -0.005  0.00  0.00    +0.020 A 
ATOM      5  C   LIG    1       11.077   3.065   0.035  0.00  0.00    +0.002 A 
ATOM      6  C   LIG    1       12.025   2.231   0.658  0.00  0.00    +0.012 A 
ATOM      7  C   LIG    1       11.648   1.012   1.226  0.00  0.00    +0.024 A 
ATOM      8  C   LIG    1       10.311   0.631   1.163  0.00  0.00    +0.042 A 
ATOM      9  N   LIG    1        9.691  -0.500   1.637  0.00  0.00    -0.281 N 
ATOM     10  H   LIG    1       10.167  -1.239   2.134  0.00  0.00    +0.155 HD
ATOM     11  C   LIG    1        8.368  -0.511   1.389  0.00  0.00    +0.249 C 
ATOM     12  O   LIG    1        7.603  -1.409   1.738  0.00  0.00    -0.270 OA
ENDROOT
BRANCH   1  16
ATOM     13  C   LIG    1        3.340   0.013   0.247  0.00  0.00    +0.060 A 
ATOM     14  C   LIG    1        4.278   1.069   0.411  0.00  0.00    -0.013 A 
ATOM     15  C   LIG    1        3.982   2.546   0.611  0.00  0.00    +0.047 C 
ATOM     16  C   LIG    1        5.548   0.513   0.247  0.00  0.00    +0.044 A 
ATOM     17  N   LIG    1        5.381  -0.829   0.041  0.00  0.00    -0.358 N 
ATOM     18  H   LIG    1        6.140  -1.482  -0.090  0.00  0.00    +0.166 HD
ATOM     19  C   LIG    1        4.061  -1.178   0.079  0.00  0.00    +0.026 A 
ATOM     20  C   LIG    1        3.662  -2.632  -0.069  0.00  0.00    +0.064 C 
BRANCH  13  23
ATOM     21  N   LIG    1        1.193  -0.723  -0.372  0.00  0.00    -0.313 N 
ATOM     22  H   LIG    1        1.695  -1.411  -0.914  0.00  0.00    +0.149 HD
ATOM     23  C   LIG    1        1.904   0.141   0.377  0.00  0.00    +0.246 C 
ATOM     24  O   LIG    1        1.395   0.997   1.103  0.00  0.00    -0.270 OA
BRANCH  21  25
ATOM     25  C   LIG    1       -0.268  -0.781  -0.441  0.00  0.00    +0.086 C 
BRANCH  25  26
ATOM     26  C   LIG    1       -0.898   0.370  -1.262  0.00  0.00    -0.060 C 
BRANCH  26  27
ATOM     27  N   LIG    1       -1.267   1.565  -0.346  0.00  0.00    +0.380 N 
ATOM     28  H   LIG    1       -0.539   1.616   0.354  0.00  0.00    -0.082 HD
BRANCH  27  30
ATOM     29  C   LIG    1       -2.622   2.140   1.720  0.00  0.00    -0.017 C 
ATOM     30  C   LIG    1       -2.593   1.326   0.416  0.00  0.00    -0.082 C 
ENDBRANCH  27  30
BRANCH  27  31
ATOM     31  C   LIG    1       -1.244   2.920  -1.096  0.00  0.00    -0.082 C 
ATOM     32  C   LIG    1        0.203   3.402  -1.295  0.00  0.00    -0.017 C 
ENDBRANCH  27  31
ENDBRANCH  26  27
ENDBRANCH  25  26
ENDBRANCH  21  25
ENDBRANCH  13  23
ENDBRANCH   1  16
BRANCH   5  33
ATOM     33  C   LIG    1       11.478   4.376  -0.583  0.00  0.00    +0.079 A 
ATOM     34  N   LIG    1       12.759   4.683  -0.733  0.00  0.00    -0.239 NA
ATOM     35  C   LIG    1       12.971   5.849  -1.299  0.00  0.00    +0.109 A 
ATOM     36  S   LIG    1       11.509   6.707  -1.690  0.00  0.00    -0.075 S 
ATOM     37  C   LIG    1       10.610   5.369  -1.048  0.00  0.00    +0.075 A 
BRANCH  35  38
ATOM     38  C   LIG    1       14.342   6.412  -1.571  0.00  0.00    +0.007 A 
ATOM     39  C   LIG    1       14.520   7.592  -2.309  0.00  0.00    +0.010 A 
ATOM     40  C   LIG    1       15.797   8.090  -2.552  0.00  0.00    +0.001 A 
ATOM     41  C   LIG    1       16.909   7.414  -2.058  0.00  0.00    +0.000 A 
ATOM     42  C   LIG    1       16.753   6.242  -1.324  0.00  0.00    +0.001 A 
ATOM     43  C   LIG    1       15.475   5.744  -1.083  0.00  0.00    +0.010 A 
ENDBRANCH  35  38
ENDBRANCH   5  33
TORSDOF 9
