REMARK  Name = DB14188
REMARK                            x       y       z     vdW  Elec       q    Type
REMARK                         _______ _______ _______ _____ _____    ______ ____
ROOT
ATOM      1  C   LIG    1        0.042   0.006   0.000  0.00  0.00    +0.162 A 
ATOM      2  C   LIG    1       -0.653  -1.218   0.000  0.00  0.00    +0.057 A 
ATOM      3  C   LIG    1       -2.055  -1.261   0.000  0.00  0.00    -0.022 A 
ATOM      4  C   LIG    1       -2.762  -0.055   0.000  0.00  0.00    +0.012 A 
ATOM      5  C   LIG    1       -2.090   1.165   0.000  0.00  0.00    +0.050 A 
ATOM      6  C   LIG    1       -0.697   1.197   0.000  0.00  0.00    +0.158 A 
ENDROOT
BRANCH   3   7
ATOM      7  C   LIG    1       -2.818  -2.528   0.000  0.00  0.00    +0.003 C 
ATOM      8  C   LIG    1       -2.320  -3.779   0.000  0.00  0.00    -0.030 C 
ATOM      9  C   LIG    1       -3.174  -5.028   0.000  0.00  0.00    +0.035 C 
ENDBRANCH   3   7
BRANCH   1  10
ATOM     10  O   LIG    1        1.422   0.110   0.000  0.00  0.00    -0.491 OA
ATOM     11  C   LIG    1        2.214  -1.073   0.000  0.00  0.00    +0.277 C 
ENDBRANCH   1  10
BRANCH   6  12
ATOM     12  O   LIG    1       -0.062   2.413   0.000  0.00  0.00    -0.503 OA
ATOM     13  H   LIG    1       -0.673   3.154   0.000  0.00  0.00    +0.292 HD
ENDBRANCH   6  12
TORSDOF 3
