REMARK  Name = DB14835
REMARK                            x       y       z     vdW  Elec       q    Type
REMARK                         _______ _______ _______ _____ _____    ______ ____
ROOT
ATOM      1  C   LIG    1        0.902   0.011  -0.174  0.00  0.00    +0.034 A 
ATOM      2  C   LIG    1        1.424   1.247   0.231  0.00  0.00    +0.027 A 
ATOM      3  C   LIG    1        2.801   1.414   0.360  0.00  0.00    +0.047 A 
ATOM      4  C   LIG    1        3.677   0.354   0.081  0.00  0.00    +0.121 A 
ATOM      5  C   LIG    1        3.145  -0.864  -0.344  0.00  0.00    +0.047 A 
ATOM      6  C   LIG    1        1.771  -1.037  -0.477  0.00  0.00    +0.027 A 
ENDROOT
BRANCH   1   9
ATOM      7  O   LIG    1       -1.413   1.248   1.115  0.00  0.00    -0.274 OA
ATOM      8  C   LIG    1       -1.521   0.362   0.266  0.00  0.00    +0.231 C 
ATOM      9  N   LIG    1       -0.471  -0.246  -0.335  0.00  0.00    -0.284 N 
ATOM     10  H   LIG    1       -0.691  -1.036  -0.924  0.00  0.00    +0.155 HD
BRANCH   8  11
ATOM     11  C   LIG    1       -2.943  -0.127  -0.096  0.00  0.00    +0.181 C 
BRANCH  11  12
ATOM     12  N   LIG    1       -3.039  -0.649  -1.472  0.00  0.00    -0.290 NA
ATOM     13  C   LIG    1       -4.238  -1.484  -1.633  0.00  0.00    +0.113 C 
ATOM     14  C   LIG    1       -4.377  -2.004  -3.080  0.00  0.00    +0.175 C 
ATOM     15  O   LIG    1       -4.368  -0.912  -3.993  0.00  0.00    -0.377 OA
ATOM     16  C   LIG    1       -3.171  -0.147  -3.912  0.00  0.00    +0.175 C 
ATOM     17  C   LIG    1       -3.001   0.420  -2.486  0.00  0.00    +0.113 C 
ENDBRANCH  11  12
ENDBRANCH   8  11
ENDBRANCH   1   9
BRANCH   4  18
ATOM     18  O   LIG    1        5.057   0.394   0.184  0.00  0.00    -0.489 OA
BRANCH  18  19
ATOM     19  C   LIG    1        5.795   1.535   0.637  0.00  0.00    +0.170 C 
ATOM     20  C   LIG    1        5.760   2.744  -0.326  0.00  0.00    +0.026 C 
ATOM     21  C   LIG    1        6.726   3.850   0.137  0.00  0.00    -0.075 C 
ATOM     22  N   LIG    1        6.379   4.249   1.592  0.00  0.00    +0.382 N 
ATOM     23  H   LIG    1        5.419   4.566   1.609  0.00  0.00    -0.081 HD
ATOM     24  C   LIG    1        6.503   3.047   2.559  0.00  0.00    -0.075 C 
ATOM     25  C   LIG    1        5.536   1.936   2.109  0.00  0.00    +0.026 C 
BRANCH  22  26
ATOM     26  C   LIG    1        7.284   5.410   2.061  0.00  0.00    -0.069 C 
ATOM     27  C   LIG    1        7.107   6.766   1.361  0.00  0.00    -0.015 C 
ATOM     28  C   LIG    1        7.276   7.436   2.731  0.00  0.00    -0.003 C 
ATOM     29  C   LIG    1        6.913   6.095   3.385  0.00  0.00    -0.015 C 
ENDBRANCH  22  26
ENDBRANCH  18  19
ENDBRANCH   4  18
TORSDOF 6
