REMARK  Name = DB14903
REMARK                            x       y       z     vdW  Elec       q    Type
REMARK                         _______ _______ _______ _____ _____    ______ ____
ROOT
ATOM      1  C   LIG    1        2.642  -1.181   0.386  0.00  0.00    +0.289 C 
ENDROOT
BRANCH   1   2
ATOM      2  P   LIG    1        2.928   0.049   1.729  0.00  0.00    +0.345 P 
ATOM      3  O   LIG    1        4.171  -0.109   2.533  0.00  0.00    -0.257 OA
BRANCH   2   4
ATOM      4  N   LIG    1        1.485   0.060   2.633  0.00  0.00    -0.221 NA
ATOM      5  H   LIG    1        1.498  -0.253   3.604  0.00  0.00    +0.133 HD
BRANCH   4   6
ATOM      6  C   LIG    1        0.160   0.295   2.056  0.00  0.00    +0.169 C 
ATOM      7  C   LIG    1       -0.838  -0.816   2.440  0.00  0.00    +0.036 C 
BRANCH   6   8
ATOM      8  C   LIG    1       -0.348   1.675   2.430  0.00  0.00    +0.324 C 
ATOM      9  O   LIG    1       -1.156   1.885   3.339  0.00  0.00    -0.249 OA
BRANCH   8  10
ATOM     10  O   LIG    1        0.198   2.624   1.636  0.00  0.00    -0.464 OA
BRANCH  10  12
ATOM     11  C   LIG    1        0.672   4.830   0.800  0.00  0.00    +0.048 C 
ATOM     12  C   LIG    1       -0.122   3.997   1.811  0.00  0.00    +0.229 C 
ENDBRANCH  10  12
ENDBRANCH   8  10
ENDBRANCH   6   8
ENDBRANCH   4   6
ENDBRANCH   2   4
BRANCH   2  13
ATOM     13  O   LIG    1        2.839   1.465   0.920  0.00  0.00    -0.431 OA
BRANCH  13  14
ATOM     14  C   LIG    1        3.586   1.820  -0.173  0.00  0.00    +0.129 A 
ATOM     15  C   LIG    1        2.944   2.485  -1.218  0.00  0.00    +0.046 A 
ATOM     16  C   LIG    1        3.665   2.878  -2.342  0.00  0.00    +0.004 A 
ATOM     17  C   LIG    1        5.030   2.609  -2.414  0.00  0.00    +0.000 A 
ATOM     18  C   LIG    1        5.681   1.954  -1.371  0.00  0.00    +0.004 A 
ATOM     19  C   LIG    1        4.960   1.562  -0.246  0.00  0.00    +0.046 A 
ENDBRANCH  13  14
ENDBRANCH   2  13
ENDBRANCH   1   2
BRANCH   1  20
ATOM     20  O   LIG    1        2.447  -2.432   1.032  0.00  0.00    -0.335 OA
BRANCH  20  21
ATOM     21  C   LIG    1        2.087  -3.489   0.197  0.00  0.00    +0.281 C 
ATOM     22  C   LIG    1        0.595  -3.509   0.009  0.00  0.00    +0.072 C 
ATOM     23  C   LIG    1        0.122  -4.583   0.644  0.00  0.00    +0.151 C 
ATOM     24  F   LIG    1       -1.162  -4.989   0.744  0.00  0.00    -0.206 F 
ATOM     25  C   LIG    1        1.290  -5.308   1.258  0.00  0.00    +0.285 C 
ATOM     26  O   LIG    1        2.446  -4.692   0.790  0.00  0.00    -0.318 OA
BRANCH  25  27
ATOM     27  N   LIG    1        1.299  -5.322   2.776  0.00  0.00    -0.282 N 
ATOM     28  C   LIG    1        2.059  -6.154   3.551  0.00  0.00    +0.168 A 
ATOM     29  N   LIG    1        2.930  -7.119   3.162  0.00  0.00    -0.216 NA
ATOM     30  C   LIG    1        3.495  -7.725   4.218  0.00  0.00    +0.225 A 
ATOM     31  N   LIG    1        3.308  -7.498   5.527  0.00  0.00    -0.219 NA
ATOM     32  C   LIG    1        2.428  -6.522   5.885  0.00  0.00    +0.147 A 
ATOM     33  C   LIG    1        1.765  -5.809   4.859  0.00  0.00    +0.147 A 
ATOM     34  N   LIG    1        0.864  -4.816   4.904  0.00  0.00    -0.231 NA
ATOM     35  C   LIG    1        0.611  -4.552   3.647  0.00  0.00    +0.204 A 
BRANCH  32  36
ATOM     36  N   LIG    1        2.223  -6.271   7.240  0.00  0.00    -0.341 N 
ATOM     37  H   LIG    1        2.735  -6.807   7.925  0.00  0.00    +0.144 HD
ATOM     38  H   LIG    1        1.579  -5.543   7.516  0.00  0.00    +0.144 HD
ENDBRANCH  32  36
ENDBRANCH  25  27
ENDBRANCH  20  21
ENDBRANCH   1  20
TORSDOF 12
