REMARK  Name = DB14869
REMARK                            x       y       z     vdW  Elec       q    Type
REMARK                         _______ _______ _______ _____ _____    ______ ____
ROOT
ATOM      1  C   LIG    1       -2.397   1.198  -0.010  0.00  0.00    +0.312 C 
ATOM      2  O   LIG    1       -3.052   0.169   0.181  0.00  0.00    -0.250 OA
ENDROOT
BRANCH   1   3
ATOM      3  O   LIG    1       -2.896   2.454  -0.168  0.00  0.00    -0.426 OA
BRANCH   3   7
ATOM      4  C   LIG    1       -7.021   3.112  -0.021  0.00  0.00    +0.059 A 
ATOM      5  C   LIG    1       -6.410   2.692  -1.212  0.00  0.00    +0.018 A 
ATOM      6  C   LIG    1       -5.037   2.469  -1.263  0.00  0.00    +0.047 A 
ATOM      7  C   LIG    1       -4.257   2.654  -0.120  0.00  0.00    +0.132 A 
ATOM      8  C   LIG    1       -4.851   3.083   1.067  0.00  0.00    +0.047 A 
ATOM      9  C   LIG    1       -6.224   3.308   1.119  0.00  0.00    +0.018 A 
BRANCH   4  10
ATOM     10  C   LIG    1       -8.505   3.343  -0.001  0.00  0.00    +0.339 C 
ATOM     11  O   LIG    1       -9.229   3.180  -0.988  0.00  0.00    -0.245 OA
BRANCH  10  13
ATOM     12  C   LIG    1      -10.350   4.012   1.411  0.00  0.00    +0.280 C 
ATOM     13  O   LIG    1       -8.969   3.748   1.209  0.00  0.00    -0.464 OA
ENDBRANCH  10  13
ENDBRANCH   4  10
ENDBRANCH   3   7
ENDBRANCH   1   3
BRANCH   1  14
ATOM     14  C   LIG    1       -0.865   1.190  -0.099  0.00  0.00    +0.121 C 
BRANCH  14  15
ATOM     15  C   LIG    1       -0.220  -0.209  -0.011  0.00  0.00    +0.011 C 
BRANCH  15  16
ATOM     16  C   LIG    1        1.315  -0.154  -0.101  0.00  0.00    +0.001 C 
BRANCH  16  17
ATOM     17  C   LIG    1        1.971  -1.544  -0.031  0.00  0.00    +0.000 C 
BRANCH  17  18
ATOM     18  C   LIG    1        3.510  -1.486  -0.118  0.00  0.00    +0.009 C 
BRANCH  18  19
ATOM     19  C   LIG    1        4.213  -2.858   0.008  0.00  0.00    +0.098 C 
BRANCH  19  20
ATOM     20  C   LIG    1        3.921  -3.848  -1.132  0.00  0.00    +0.235 C 
ATOM     21  N   LIG    1        3.897  -5.148  -0.788  0.00  0.00    -0.197 N 
ATOM     22  H   LIG    1        4.077  -5.562   0.115  0.00  0.00    +0.182 HD
ATOM     23  O   LIG    1        3.741  -3.436  -2.280  0.00  0.00    -0.274 OA
BRANCH  21  24
ATOM     24  O   LIG    1        3.671  -6.096  -1.791  0.00  0.00    -0.295 OA
ATOM     25  H   LIG    1        4.533  -6.505  -1.906  0.00  0.00    +0.241 HD
ENDBRANCH  21  24
ENDBRANCH  19  20
ENDBRANCH  18  19
ENDBRANCH  17  18
ENDBRANCH  16  17
ENDBRANCH  15  16
ENDBRANCH  14  15
ENDBRANCH   1  14
TORSDOF 12
