REMARK  Name = DB14885
REMARK                            x       y       z     vdW  Elec       q    Type
REMARK                         _______ _______ _______ _____ _____    ______ ____
ROOT
ATOM      1  C   LIG    1       -3.322   0.838   0.550  0.00  0.00    +0.173 C 
ATOM      2  N   LIG    1       -1.994   0.241   0.631  0.00  0.00    -0.265 N 
ATOM      3  C   LIG    1       -0.762   0.816   0.357  0.00  0.00    +0.096 A 
ATOM      4  C   LIG    1        0.144  -0.223   0.593  0.00  0.00    +0.049 A 
ATOM      5  C   LIG    1       -0.634  -1.311   1.001  0.00  0.00    +0.145 A 
ATOM      6  N   LIG    1       -1.911  -1.035   1.030  0.00  0.00    -0.179 NA
ENDROOT
BRANCH   4   7
ATOM      7  C   LIG    1        1.588  -0.223   0.500  0.00  0.00    +0.105 A 
ATOM      8  N   LIG    1        2.299   0.568   1.279  0.00  0.00    -0.230 NA
ATOM      9  C   LIG    1        3.573   0.315   1.068  0.00  0.00    +0.129 A 
ATOM     10  C   LIG    1        4.721   0.998   1.783  0.00  0.00    +0.088 C 
ATOM     11  N   LIG    1        3.743  -0.663   0.115  0.00  0.00    -0.212 N 
ATOM     12  N   LIG    1        4.905  -1.184  -0.323  0.00  0.00    -0.153 NA
ATOM     13  C   LIG    1        4.731  -2.143  -1.264  0.00  0.00    +0.245 A 
ATOM     14  N   LIG    1        3.561  -2.568  -1.795  0.00  0.00    -0.217 NA
ATOM     15  C   LIG    1        2.416  -1.974  -1.357  0.00  0.00    +0.151 A 
ATOM     16  C   LIG    1        2.450  -1.011  -0.318  0.00  0.00    +0.133 A 
BRANCH  15  17
ATOM     17  N   LIG    1        1.218  -2.400  -1.958  0.00  0.00    -0.313 N 
ATOM     18  C   LIG    1        0.057  -1.594  -2.341  0.00  0.00    +0.108 C 
ATOM     19  C   LIG    1       -0.195  -2.459  -3.561  0.00  0.00    +0.038 C 
ATOM     20  C   LIG    1        1.051  -3.224  -3.158  0.00  0.00    +0.108 C 
ENDBRANCH  15  17
ENDBRANCH   4   7
BRANCH   3  21
ATOM     21  C   LIG    1       -0.523   2.229  -0.094  0.00  0.00    +0.089 A 
ATOM     22  C   LIG    1        0.562   2.556  -0.916  0.00  0.00    +0.030 A 
ATOM     23  C   LIG    1        0.735   3.883  -1.312  0.00  0.00    +0.016 A 
ATOM     24  C   LIG    1       -0.172   4.862  -0.890  0.00  0.00    +0.073 A 
ATOM     25  C   LIG    1       -1.236   4.455  -0.076  0.00  0.00    +0.123 A 
ATOM     26  N   LIG    1       -1.418   3.169   0.317  0.00  0.00    -0.253 NA
BRANCH  24  27
ATOM     27  C   LIG    1        0.008   6.315  -1.320  0.00  0.00    +0.419 C 
ATOM     28  F   LIG    1       -0.974   7.101  -0.874  0.00  0.00    -0.166 F 
ATOM     29  F   LIG    1        0.031   6.390  -2.651  0.00  0.00    -0.166 F 
ATOM     30  F   LIG    1        1.164   6.779  -0.846  0.00  0.00    -0.166 F 
ENDBRANCH  24  27
ENDBRANCH   3  21
TORSDOF 4
