REMARK  Name = DB14202
REMARK                            x       y       z     vdW  Elec       q    Type
REMARK                         _______ _______ _______ _____ _____    ______ ____
ROOT
ATOM      1  C   LIG    1       -4.452  -1.315   0.008  0.00  0.00    +0.002 A 
ATOM      2  C   LIG    1       -3.128  -1.757   0.016  0.00  0.00    +0.029 A 
ATOM      3  C   LIG    1       -2.104  -0.796   0.029  0.00  0.00    +0.080 A 
ATOM      4  N   LIG    1       -0.774  -1.075   0.034  0.00  0.00    -0.231 NA
ATOM      5  C   LIG    1       -0.054   0.012   0.045  0.00  0.00    +0.151 A 
ATOM      6  S   LIG    1       -0.942   1.520   0.052  0.00  0.00    -0.060 S 
ATOM      7  C   LIG    1       -2.430   0.586   0.035  0.00  0.00    +0.040 A 
ATOM      8  C   LIG    1       -3.763   1.018   0.026  0.00  0.00    +0.017 A 
ATOM      9  C   LIG    1       -4.763   0.044   0.011  0.00  0.00    +0.001 A 
ENDROOT
BRANCH   5  10
ATOM     10  S   LIG    1        1.697   0.012   0.020  0.00  0.00    -0.013 S 
BRANCH  10  11
ATOM     11  N   LIG    1        1.996   0.004  -1.740  0.00  0.00    -0.239 NA
ATOM     12  C   LIG    1        2.616  -1.225  -2.234  0.00  0.00    +0.125 C 
ATOM     13  C   LIG    1        2.686  -1.201  -3.776  0.00  0.00    +0.176 C 
ATOM     14  O   LIG    1        3.364  -0.026  -4.215  0.00  0.00    -0.377 OA
ATOM     15  C   LIG    1        2.731   1.174  -3.779  0.00  0.00    +0.176 C 
ATOM     16  C   LIG    1        2.664   1.205  -2.237  0.00  0.00    +0.125 C 
ENDBRANCH  10  11
ENDBRANCH   5  10
TORSDOF 2
