REMARK  Name = DB14917
REMARK                            x       y       z     vdW  Elec       q    Type
REMARK                         _______ _______ _______ _____ _____    ______ ____
ROOT
ATOM      1  C   LIG    1       -2.213  -1.115  -0.003  0.00  0.00    +0.125 A 
ATOM      2  C   LIG    1       -0.821  -1.241  -0.105  0.00  0.00    +0.068 A 
ATOM      3  C   LIG    1       -0.060  -0.072  -0.038  0.00  0.00    +0.066 A 
ATOM      4  N   LIG    1       -0.624   1.153   0.114  0.00  0.00    -0.235 NA
ATOM      5  C   LIG    1       -1.980   1.206   0.197  0.00  0.00    +0.141 A 
ATOM      6  N   LIG    1       -2.793   0.113   0.136  0.00  0.00    -0.217 NA
ENDROOT
BRANCH   5   7
ATOM      7  C   LIG    1       -2.634   2.551   0.355  0.00  0.00    +0.070 C 
ATOM      8  C   LIG    1       -1.914   3.744   0.659  0.00  0.00    +0.021 C 
ATOM      9  C   LIG    1       -0.534   4.081   0.903  0.00  0.00    +0.022 C 
ATOM     10  C   LIG    1       -0.464   5.435   1.149  0.00  0.00    +0.076 C 
ATOM     11  N   LIG    1       -1.724   5.969   1.077  0.00  0.00    -0.303 NA
ATOM     12  H   LIG    1       -1.905   6.952   1.224  0.00  0.00    +0.123 HD
ATOM     13  C   LIG    1       -2.637   4.978   0.784  0.00  0.00    +0.064 C 
ATOM     14  C   LIG    1       -4.022   5.031   0.614  0.00  0.00    +0.095 C 
ATOM     15  N   LIG    1       -4.644   3.875   0.332  0.00  0.00    -0.305 NA
ATOM     16  H   LIG    1       -5.646   3.898   0.205  0.00  0.00    +0.123 HD
ATOM     17  C   LIG    1       -4.027   2.689   0.203  0.00  0.00    +0.087 C 
ENDBRANCH   5   7
BRANCH   1  20
ATOM     18  C   LIG    1       -4.572  -1.840   1.891  0.00  0.00    +0.030 C 
ATOM     19  C   LIG    1       -4.439  -2.233   0.401  0.00  0.00    +0.097 C 
ATOM     20  N   LIG    1       -3.041  -2.234  -0.110  0.00  0.00    -0.308 N 
ATOM     21  C   LIG    1       -2.926  -2.962  -1.389  0.00  0.00    +0.135 C 
ATOM     22  C   LIG    1       -3.640  -4.322  -1.399  0.00  0.00    +0.179 C 
ATOM     23  O   LIG    1       -5.004  -4.117  -1.091  0.00  0.00    -0.376 OA
ATOM     24  C   LIG    1       -5.170  -3.593   0.214  0.00  0.00    +0.182 C 
ENDBRANCH   1  20
BRANCH   3  25
ATOM     25  C   LIG    1        1.457  -0.110  -0.111  0.00  0.00    +0.096 C 
ATOM     26  C   LIG    1        2.192   0.597  -1.234  0.00  0.00    +0.029 C 
ATOM     27  C   LIG    1        2.191  -0.909  -1.172  0.00  0.00    +0.029 C 
BRANCH  25  28
ATOM     28  S   LIG    1        2.312   0.023   1.588  0.00  0.00    +0.054 S 
ATOM     29  C   LIG    1        1.161  -0.790   2.845  0.00  0.00    +0.133 C 
ATOM     30  N   LIG    1        2.175   1.513   1.928  0.00  0.00    -0.251 NA
ATOM     31  H   LIG    1        1.629   1.681   2.760  0.00  0.00    +0.197 HD
ATOM     32  O   LIG    1        3.599  -0.681   1.567  0.00  0.00    -0.247 OA
ENDBRANCH  25  28
ENDBRANCH   3  25
TORSDOF 4
