REMARK  Name = DB14083
REMARK                            x       y       z     vdW  Elec       q    Type
REMARK                         _______ _______ _______ _____ _____    ______ ____
ROOT
ATOM      1  C   LIG    1        1.453  -0.075  -0.178  0.00  0.00    +0.015 C 
ATOM      2  C   LIG    1        2.158   0.783   0.911  0.00  0.00    +0.021 C 
ATOM      3  C   LIG    1        1.772   0.614  -1.536  0.00  0.00    +0.021 C 
ENDROOT
BRANCH   1   8
ATOM      4  C   LIG    1       -2.158   0.587   1.040  0.00  0.00    +0.046 A 
ATOM      5  C   LIG    1       -2.898  -0.234   0.191  0.00  0.00    +0.121 A 
ATOM      6  C   LIG    1       -2.227  -0.991  -0.780  0.00  0.00    +0.046 A 
ATOM      7  C   LIG    1       -0.841  -0.925  -0.885  0.00  0.00    +0.008 A 
ATOM      8  C   LIG    1       -0.091  -0.107  -0.028  0.00  0.00    -0.037 A 
ATOM      9  C   LIG    1       -0.772   0.653   0.935  0.00  0.00    +0.008 A 
BRANCH   5  10
ATOM     10  O   LIG    1       -4.268  -0.239   0.374  0.00  0.00    -0.489 OA
BRANCH  10  11
ATOM     11  C   LIG    1       -5.080  -1.073  -0.448  0.00  0.00    +0.262 C 
BRANCH  11  12
ATOM     12  C   LIG    1       -6.540  -0.918  -0.006  0.00  0.00    +0.181 C 
ATOM     13  O   LIG    1       -7.267   0.152  -0.547  0.00  0.00    -0.368 OA
ATOM     14  C   LIG    1       -7.627  -1.129  -1.008  0.00  0.00    +0.195 C 
ENDBRANCH  11  12
ENDBRANCH  10  11
ENDBRANCH   5  10
ENDBRANCH   1   8
BRANCH   1  15
ATOM     15  C   LIG    1        2.025  -1.514  -0.073  0.00  0.00    -0.037 A 
ATOM     16  C   LIG    1        1.732  -2.280   1.063  0.00  0.00    +0.008 A 
ATOM     17  C   LIG    1        2.221  -3.576   1.199  0.00  0.00    +0.046 A 
ATOM     18  C   LIG    1        3.023  -4.136   0.194  0.00  0.00    +0.121 A 
ATOM     19  C   LIG    1        3.319  -3.377  -0.937  0.00  0.00    +0.046 A 
ATOM     20  C   LIG    1        2.829  -2.082  -1.073  0.00  0.00    +0.008 A 
BRANCH  18  21
ATOM     21  O   LIG    1        3.554  -5.410   0.239  0.00  0.00    -0.489 OA
BRANCH  21  22
ATOM     22  C   LIG    1        3.280  -6.242   1.362  0.00  0.00    +0.262 C 
BRANCH  22  23
ATOM     23  C   LIG    1        4.010  -7.577   1.166  0.00  0.00    +0.181 C 
ATOM     24  C   LIG    1        3.424  -8.818   1.757  0.00  0.00    +0.195 C 
ATOM     25  O   LIG    1        3.376  -8.547   0.376  0.00  0.00    -0.368 OA
ENDBRANCH  22  23
ENDBRANCH  21  22
ENDBRANCH  18  21
ENDBRANCH   1  15
TORSDOF 8
