REMARK  Name = DB14753
REMARK                            x       y       z     vdW  Elec       q    Type
REMARK                         _______ _______ _______ _____ _____    ______ ____
ROOT
ATOM      1  C   LIG    1        0.058   0.131   0.353  0.00  0.00    +0.012 C 
ATOM      2  C   LIG    1       -0.787   0.960  -0.298  0.00  0.00    +0.008 C 
ENDROOT
BRANCH   2   3
ATOM      3  C   LIG    1       -2.263   0.992  -0.187  0.00  0.00    -0.025 A 
ATOM      4  C   LIG    1       -2.965   1.944  -0.927  0.00  0.00    +0.009 A 
ATOM      5  C   LIG    1       -4.353   2.017  -0.856  0.00  0.00    +0.016 A 
ATOM      6  C   LIG    1       -5.095   1.141  -0.042  0.00  0.00    +0.065 A 
ATOM      7  C   LIG    1       -4.370   0.187   0.698  0.00  0.00    +0.016 A 
ATOM      8  C   LIG    1       -2.982   0.111   0.628  0.00  0.00    +0.009 A 
BRANCH   6   9
ATOM      9  C   LIG    1       -6.586   1.240   0.018  0.00  0.00    +0.308 C 
ATOM     10  N   LIG    1       -7.207   2.106  -0.662  0.00  0.00    -0.099 NA
ATOM     11  H   LIG    1       -8.207   2.063  -0.529  0.00  0.00    +0.363 HD
BRANCH   9  12
ATOM     12  N   LIG    1       -7.187   0.325   0.858  0.00  0.00    -0.247 N 
ATOM     13  H   LIG    1       -6.632  -0.340   1.375  0.00  0.00    +0.288 HD
ATOM     14  H   LIG    1       -8.191   0.313   0.967  0.00  0.00    +0.288 HD
ENDBRANCH   9  12
ENDBRANCH   6   9
ENDBRANCH   2   3
BRANCH   1  15
ATOM     15  C   LIG    1        1.541   0.095   0.249  0.00  0.00    +0.016 A 
ATOM     16  C   LIG    1        2.238   0.977  -0.586  0.00  0.00    +0.012 A 
ATOM     17  C   LIG    1        3.628   0.938  -0.675  0.00  0.00    +0.017 A 
ATOM     18  C   LIG    1        4.393   0.017   0.062  0.00  0.00    +0.068 A 
ATOM     19  C   LIG    1        3.680  -0.866   0.897  0.00  0.00    +0.062 A 
ATOM     20  C   LIG    1        2.288  -0.834   0.993  0.00  0.00    +0.125 A 
BRANCH  18  21
ATOM     21  C   LIG    1        5.884  -0.003  -0.051  0.00  0.00    +0.308 C 
ATOM     22  N   LIG    1        6.486   0.798  -0.823  0.00  0.00    -0.099 NA
ATOM     23  H   LIG    1        7.489   0.680  -0.806  0.00  0.00    +0.363 HD
BRANCH  21  24
ATOM     24  N   LIG    1        6.505  -0.945   0.741  0.00  0.00    -0.247 N 
ATOM     25  H   LIG    1        5.963  -1.554   1.335  0.00  0.00    +0.288 HD
ATOM     26  H   LIG    1        7.511  -1.036   0.738  0.00  0.00    +0.288 HD
ENDBRANCH  21  24
ENDBRANCH  18  21
BRANCH  20  27
ATOM     27  O   LIG    1        1.681  -1.735   1.834  0.00  0.00    -0.506 OA
ATOM     28  H   LIG    1        2.306  -2.311   2.279  0.00  0.00    +0.292 HD
ENDBRANCH  20  27
ENDBRANCH   1  15
TORSDOF 7
