REMARK  Name = DB14786
REMARK                            x       y       z     vdW  Elec       q    Type
REMARK                         _______ _______ _______ _____ _____    ______ ____
ROOT
ATOM      1  N   SER A  8        3.344  -0.767  -2.339  0.00  0.00    -0.301 N 
ATOM      2  H   SER A  8        3.096  -0.688  -3.315  0.00  0.00    +0.150 HD
ATOM      3  C   PRO A  7        4.618  -0.582  -1.967  0.00  0.00    +0.234 C 
ATOM      4  O   PRO A  7        5.030  -0.658  -0.809  0.00  0.00    -0.274 OA
ENDROOT
BRANCH   3   5
ATOM      5  CA  PRO A  7        5.606  -0.316  -3.118  0.00  0.00    +0.162 C 
ATOM      6  N   PRO A  7        6.680  -1.325  -3.243  0.00  0.00    -0.288 N 
ATOM      7  C   LEU A  6        6.458  -2.664  -3.301  0.00  0.00    +0.237 C 
ATOM      8  O   LEU A  6        5.338  -3.171  -3.370  0.00  0.00    -0.274 OA
ATOM      9  CD  PRO A  7        7.990  -0.675  -3.325  0.00  0.00    +0.109 C 
ATOM     10  CG  PRO A  7        7.689   0.782  -3.644  0.00  0.00    +0.021 C 
ATOM     11  CB  PRO A  7        6.365   1.011  -2.939  0.00  0.00    +0.033 C 
BRANCH   7  12
ATOM     12  CA  LEU A  6        7.691  -3.599  -3.295  0.00  0.00    +0.159 C 
BRANCH  12  13
ATOM     13  N   LEU A  6        8.131  -3.906  -4.660  0.00  0.00    -0.302 N 
ATOM     14  H   LEU A  6        9.026  -3.510  -4.909  0.00  0.00    +0.150 HD
ATOM     15  C   PHE A  5        7.498  -4.652  -5.585  0.00  0.00    +0.234 C 
ATOM     16  O   PHE A  5        6.404  -5.188  -5.405  0.00  0.00    -0.274 OA
BRANCH  15  17
ATOM     17  CA  PHE A  5        8.216  -4.792  -6.949  0.00  0.00    +0.163 C 
BRANCH  17  18
ATOM     18  N   PHE A  5        7.335  -5.248  -8.034  0.00  0.00    -0.302 N 
ATOM     19  H   PHE A  5        7.114  -4.543  -8.723  0.00  0.00    +0.150 HD
ATOM     20  C   PHE A  4        6.795  -6.473  -8.188  0.00  0.00    +0.234 C 
ATOM     21  O   PHE A  4        6.993  -7.414  -7.418  0.00  0.00    -0.274 OA
BRANCH  20  22
ATOM     22  CA  PHE A  4        5.875  -6.654  -9.418  0.00  0.00    +0.163 C 
BRANCH  22  23
ATOM     23  N   PHE A  4        4.757  -7.579  -9.179  0.00  0.00    -0.302 N 
ATOM     24  H   PHE A  4        3.864  -7.127  -9.047  0.00  0.00    +0.150 HD
ATOM     25  C   THR A  3        4.817  -8.912  -9.005  0.00  0.00    +0.236 C 
ATOM     26  O   THR A  3        5.838  -9.591  -9.137  0.00  0.00    -0.274 OA
BRANCH  25  27
ATOM     27  CA  THR A  3        3.507  -9.589  -8.561  0.00  0.00    +0.187 C 
BRANCH  27  28
ATOM     28  N   THR A  3        3.814 -10.475  -7.444  0.00  0.00    -0.300 N 
ATOM     29  H   THR A  3        4.769 -10.802  -7.406  0.00  0.00    +0.150 HD
ATOM     30  C   TRP A  2        2.973 -10.793  -6.451  0.00  0.00    +0.234 C 
ATOM     31  O   TRP A  2        1.792 -10.448  -6.400  0.00  0.00    -0.274 OA
BRANCH  30  32
ATOM     32  CA  TRP A  2        3.599 -11.606  -5.301  0.00  0.00    +0.163 C 
BRANCH  32  33
ATOM     33  N   TRP A  2        3.175 -13.011  -5.299  0.00  0.00    -0.305 N 
ATOM     34  H   TRP A  2        3.918 -13.663  -5.505  0.00  0.00    +0.149 HD
ATOM     35  C   TRP A  1        1.946 -13.514  -5.069  0.00  0.00    +0.199 C 
ATOM     36  O   TRP A  1        0.963 -12.812  -4.810  0.00  0.00    -0.278 OA
BRANCH  35  37
ATOM     37  CA  TRP A  1        1.869 -15.069  -5.153  0.00  0.00    +0.017 C 
BRANCH  37  38
ATOM     38  N   TRP A  1        0.422 -15.494  -5.091  0.00  0.00    +0.386 N 
ATOM     39  H1  TRP A  1        0.374 -16.499  -5.185  0.00  0.00    -0.089 HD
ATOM     40  H2  TRP A  1        0.034 -15.215  -4.202  0.00  0.00    -0.089 HD
ATOM     41  H3  TRP A  1       -0.083 -15.056  -5.848  0.00  0.00    -0.089 HD
ENDBRANCH  37  38
BRANCH  37  42
ATOM     42  CB  TRP A  1        2.731 -15.768  -4.068  0.00  0.00    +0.030 C 
BRANCH  42  43
ATOM     43  CG  TRP A  1        2.830 -17.265  -4.143  0.00  0.00    -0.023 A 
ATOM     44  CD2 TRP A  1        2.062 -18.272  -3.413  0.00  0.00    +0.003 A 
ATOM     45  CE3 TRP A  1        1.054 -18.229  -2.420  0.00  0.00    +0.010 A 
ATOM     46  CZ3 TRP A  1        0.496 -19.411  -1.892  0.00  0.00    +0.001 A 
ATOM     47  CH2 TRP A  1        0.933 -20.671  -2.346  0.00  0.00    +0.002 A 
ATOM     48  CZ2 TRP A  1        1.931 -20.752  -3.335  0.00  0.00    +0.026 A 
ATOM     49  CE2 TRP A  1        2.479 -19.565  -3.854  0.00  0.00    +0.047 A 
ATOM     50  NE1 TRP A  1        3.441 -19.307  -4.809  0.00  0.00    -0.360 N 
ATOM     51  HE1 TRP A  1        3.951 -20.003  -5.333  0.00  0.00    +0.165 HD
ATOM     52  CD1 TRP A  1        3.638 -17.953  -4.982  0.00  0.00    +0.087 A 
ENDBRANCH  42  43
ENDBRANCH  37  42
ENDBRANCH  35  37
ENDBRANCH  32  33
BRANCH  32  53
ATOM     53  CB  TRP A  2        3.403 -10.949  -3.910  0.00  0.00    +0.069 C 
BRANCH  53  54
ATOM     54  CG  TRP A  2        3.822  -9.513  -3.728  0.00  0.00    -0.020 A 
ATOM     55  CD2 TRP A  2        3.340  -8.565  -2.726  0.00  0.00    +0.003 A 
ATOM     56  CE3 TRP A  2        2.379  -8.622  -1.688  0.00  0.00    +0.010 A 
ATOM     57  CZ3 TRP A  2        2.126  -7.508  -0.863  0.00  0.00    +0.001 A 
ATOM     58  CH2 TRP A  2        2.827  -6.303  -1.059  0.00  0.00    +0.002 A 
ATOM     59  CZ2 TRP A  2        3.785  -6.208  -2.084  0.00  0.00    +0.026 A 
ATOM     60  CE2 TRP A  2        4.036  -7.329  -2.895  0.00  0.00    +0.047 A 
ATOM     61  NE1 TRP A  2        4.902  -7.566  -3.942  0.00  0.00    -0.360 N 
ATOM     62  HE1 TRP A  2        5.552  -6.898  -4.332  0.00  0.00    +0.165 HD
ATOM     63  CD1 TRP A  2        4.792  -8.858  -4.411  0.00  0.00    +0.087 A 
ENDBRANCH  53  54
ENDBRANCH  32  53
ENDBRANCH  30  32
ENDBRANCH  27  28
BRANCH  27  64
ATOM     64  CB  THR A  3        2.832 -10.353  -9.738  0.00  0.00    +0.141 C 
ATOM     65  CG2 THR A  3        2.315  -9.421 -10.847  0.00  0.00    +0.040 C 
BRANCH  64  66
ATOM     66  OG1 THR A  3        3.711 -11.279 -10.353  0.00  0.00    -0.390 OA
ATOM     67  HG1 THR A  3        4.420 -10.791 -10.778  0.00  0.00    +0.210 HD
ENDBRANCH  64  66
ENDBRANCH  27  64
ENDBRANCH  25  27
ENDBRANCH  22  23
BRANCH  22  68
ATOM     68  CB  PHE A  4        6.624  -6.983 -10.740  0.00  0.00    +0.067 C 
BRANCH  68  69
ATOM     69  CG  PHE A  4        7.859  -6.148 -11.040  0.00  0.00    -0.045 A 
ATOM     70  CD2 PHE A  4        9.142  -6.615 -10.679  0.00  0.00    +0.004 A 
ATOM     71  CE2 PHE A  4       10.253  -5.801 -10.854  0.00  0.00    +0.000 A 
ATOM     72  CZ  PHE A  4       10.105  -4.516 -11.360  0.00  0.00    +0.000 A 
ATOM     73  CE1 PHE A  4        8.846  -4.030 -11.689  0.00  0.00    +0.000 A 
ATOM     74  CD1 PHE A  4        7.722  -4.829 -11.523  0.00  0.00    +0.004 A 
ENDBRANCH  68  69
ENDBRANCH  22  68
ENDBRANCH  20  22
ENDBRANCH  17  18
BRANCH  17  75
ATOM     75  CB  PHE A  5        9.540  -5.615  -6.930  0.00  0.00    +0.067 C 
BRANCH  75  76
ATOM     76  CG  PHE A  5       10.547  -5.287  -5.839  0.00  0.00    -0.045 A 
ATOM     77  CD2 PHE A  5       10.579  -6.042  -4.646  0.00  0.00    +0.004 A 
ATOM     78  CE2 PHE A  5       11.417  -5.662  -3.606  0.00  0.00    +0.000 A 
ATOM     79  CZ  PHE A  5       12.212  -4.529  -3.725  0.00  0.00    +0.000 A 
ATOM     80  CE1 PHE A  5       12.172  -3.762  -4.883  0.00  0.00    +0.000 A 
ATOM     81  CD1 PHE A  5       11.339  -4.123  -5.934  0.00  0.00    +0.004 A 
ENDBRANCH  75  76
ENDBRANCH  17  75
ENDBRANCH  15  17
ENDBRANCH  12  13
BRANCH  12  82
ATOM     82  CB  LEU A  6        7.485  -4.896  -2.464  0.00  0.00    +0.034 C 
BRANCH  82  83
ATOM     83  CG  LEU A  6        7.137  -4.683  -0.970  0.00  0.00    -0.015 C 
ATOM     84  CD2 LEU A  6        6.843  -6.031  -0.278  0.00  0.00    +0.007 C 
ATOM     85  CD1 LEU A  6        8.212  -3.868  -0.220  0.00  0.00    +0.007 C 
ENDBRANCH  82  83
ENDBRANCH  12  82
ENDBRANCH   7  12
ENDBRANCH   3   5
BRANCH   1  86
ATOM     86  CA  SER A  8        2.252  -1.151  -1.446  0.00  0.00    +0.184 C 
BRANCH  86  89
ATOM     87  N   THR A  9       -0.116  -0.703  -1.068  0.00  0.00    -0.300 N 
ATOM     88  H   THR A  9        0.048  -1.234  -0.226  0.00  0.00    +0.150 HD
ATOM     89  C   SER A  8        0.923  -0.525  -1.906  0.00  0.00    +0.236 C 
ATOM     90  O   SER A  8        0.869   0.098  -2.968  0.00  0.00    -0.274 OA
BRANCH  87  91
ATOM     91  CA  THR A  9       -1.479  -0.162  -1.181  0.00  0.00    +0.187 C 
BRANCH  91  94
ATOM     92  N   LEU A 10       -2.634   1.751  -0.179  0.00  0.00    -0.302 N 
ATOM     93  H   LEU A 10       -3.327   1.054   0.049  0.00  0.00    +0.150 HD
ATOM     94  C   THR A  9       -1.545   1.350  -0.862  0.00  0.00    +0.236 C 
ATOM     95  O   THR A  9       -0.630   2.094  -1.215  0.00  0.00    -0.274 OA
BRANCH  92  96
ATOM     96  CA  LEU A 10       -2.917   3.080   0.382  0.00  0.00    +0.159 C 
BRANCH  96  97
ATOM     97  C   LEU A 10       -2.109   3.349   1.668  0.00  0.00    +0.234 C 
ATOM     98  N   TRP A 11       -2.741   4.094   2.592  0.00  0.00    -0.302 N 
ATOM     99  H   TRP A 11       -3.669   4.423   2.362  0.00  0.00    +0.150 HD
ATOM    100  O   LEU A 10       -0.980   2.877   1.801  0.00  0.00    -0.274 OA
BRANCH  98 101
ATOM    101  CA  TRP A 11       -2.342   4.377   3.976  0.00  0.00    +0.163 C 
BRANCH 101 102
ATOM    102  C   TRP A 11       -2.550   3.161   4.897  0.00  0.00    +0.234 C 
ATOM    103  N   GLU A 12       -3.224   3.417   6.033  0.00  0.00    -0.302 N 
ATOM    104  H   GLU A 12       -3.545   4.363   6.183  0.00  0.00    +0.150 HD
ATOM    105  O   TRP A 11       -2.083   2.066   4.585  0.00  0.00    -0.274 OA
BRANCH 103 106
ATOM    106  CA  GLU A 12       -3.590   2.479   7.099  0.00  0.00    +0.159 C 
BRANCH 106 107
ATOM    107  C   GLU A 12       -4.597   1.416   6.619  0.00  0.00    +0.234 C 
ATOM    108  N   ARG A 13       -5.867   1.593   7.029  0.00  0.00    -0.302 N 
ATOM    109  H   ARG A 13       -6.069   2.389   7.617  0.00  0.00    +0.150 HD
ATOM    110  O   GLU A 12       -4.214   0.485   5.912  0.00  0.00    -0.274 OA
BRANCH 108 111
ATOM    111  CA  ARG A 13       -7.034   0.786   6.657  0.00  0.00    +0.159 C 
BRANCH 111 112
ATOM    112  C   ARG A 13       -7.338   0.924   5.152  0.00  0.00    +0.234 C 
ATOM    113  N   LYS A 14       -7.804   2.130   4.770  0.00  0.00    -0.301 N 
ATOM    114  H   LYS A 14       -7.935   2.832   5.483  0.00  0.00    +0.150 HD
ATOM    115  O   ARG A 13       -7.117  -0.013   4.385  0.00  0.00    -0.274 OA
BRANCH 113 116
ATOM    116  CA  LYS A 14       -8.048   2.604   3.392  0.00  0.00    +0.182 C 
BRANCH 116 117
ATOM    117  C   LYS A 14       -6.685   2.854   2.622  0.00  0.00    +0.325 C 
ATOM    118  OXT LYS A 14       -6.557   2.336   1.487  0.00  0.00    -0.249 OA
BRANCH 117 119
ATOM    119  O   LYS A 14       -5.883   3.609   3.221  0.00  0.00    -0.479 OA
ATOM    120  H   LYS A 14       -5.052   3.810   2.836  0.00  0.00    +0.295 HD
ENDBRANCH 117 119
ENDBRANCH 116 117
BRANCH 116 121
ATOM    121  CB  LYS A 14       -9.086   1.698   2.649  0.00  0.00    +0.034 C 
BRANCH 121 122
ATOM    122  CG  LYS A 14       -9.828   2.405   1.499  0.00  0.00    +0.000 C 
BRANCH 122 123
ATOM    123  CD  LYS A 14      -10.786   1.463   0.748  0.00  0.00    -0.019 C 
BRANCH 123 124
ATOM    124  CE  LYS A 14      -11.523   2.126  -0.430  0.00  0.00    -0.086 C 
BRANCH 124 125
ATOM    125  NZ  LYS A 14      -10.615   2.480  -1.537  0.00  0.00    +0.378 N 
ATOM    126  HZ1 LYS A 14       -9.921   3.134  -1.203  0.00  0.00    -0.090 HD
ATOM    127  HZ2 LYS A 14      -10.153   1.647  -1.873  0.00  0.00    -0.090 HD
ATOM    128  HZ3 LYS A 14      -11.142   2.901  -2.288  0.00  0.00    -0.090 HD
ENDBRANCH 124 125
ENDBRANCH 123 124
ENDBRANCH 122 123
ENDBRANCH 121 122
ENDBRANCH 116 121
ENDBRANCH 113 116
ENDBRANCH 111 112
BRANCH 111 129
ATOM    129  CB  ARG A 13       -6.879  -0.674   7.156  0.00  0.00    +0.033 C 
BRANCH 129 130
ATOM    130  CG  ARG A 13       -8.165  -1.522   7.049  0.00  0.00    +0.017 C 
BRANCH 130 131
ATOM    131  CD  ARG A 13       -7.992  -2.978   7.524  0.00  0.00    +0.084 C 
BRANCH 131 132
ATOM    132  NE  ARG A 13       -7.801  -3.093   8.983  0.00  0.00    -0.283 NA
ATOM    133  HE  ARG A 13       -6.843  -3.020   9.296  0.00  0.00    +0.125 HD
BRANCH 132 134
ATOM    134  CZ  ARG A 13       -8.754  -3.232   9.926  0.00  0.00    +0.167 C 
BRANCH 134 135
ATOM    135  NH2 ARG A 13       -8.380  -3.303  11.210  0.00  0.00    -0.297 NA
ATOM    136 HH21 ARG A 13       -9.073  -3.409  11.938  0.00  0.00    +0.121 HD
ATOM    137 HH22 ARG A 13       -7.402  -3.252  11.458  0.00  0.00    +0.121 HD
ENDBRANCH 134 135
BRANCH 134 138
ATOM    138  NH1 ARG A 13      -10.061  -3.301   9.626  0.00  0.00    -0.297 NA
ATOM    139 HH11 ARG A 13      -10.362  -3.249   8.663  0.00  0.00    +0.121 HD
ATOM    140 HH12 ARG A 13      -10.749  -3.408  10.358  0.00  0.00    +0.121 HD
ENDBRANCH 134 138
ENDBRANCH 132 134
ENDBRANCH 131 132
ENDBRANCH 130 131
ENDBRANCH 129 130
ENDBRANCH 111 129
ENDBRANCH 108 111
ENDBRANCH 106 107
BRANCH 106 141
ATOM    141  CB  GLU A 12       -2.336   1.897   7.798  0.00  0.00    +0.043 C 
BRANCH 141 142
ATOM    142  CG  GLU A 12       -2.650   0.920   8.957  0.00  0.00    +0.123 C 
BRANCH 142 143
ATOM    143  CD  GLU A 12       -1.436   0.423   9.762  0.00  0.00    +0.305 C 
ATOM    144  OE2 GLU A 12       -1.686  -0.361  10.704  0.00  0.00    -0.251 OA
BRANCH 143 145
ATOM    145  OE1 GLU A 12       -0.288   0.815   9.450  0.00  0.00    -0.481 OA
ATOM    146  HE1 GLU A 12        0.456   0.517   9.935  0.00  0.00    +0.295 HD
ENDBRANCH 143 145
ENDBRANCH 142 143
ENDBRANCH 141 142
ENDBRANCH 106 141
ENDBRANCH 103 106
ENDBRANCH 101 102
BRANCH 101 147
ATOM    147  CB  TRP A 11       -0.919   4.979   4.090  0.00  0.00    +0.069 C 
BRANCH 147 148
ATOM    148  CG  TRP A 11       -0.460   5.303   5.483  0.00  0.00    -0.020 A 
ATOM    149  CD2 TRP A 11       -0.806   6.452   6.316  0.00  0.00    +0.003 A 
ATOM    150  CE3 TRP A 11       -1.581   7.621   6.125  0.00  0.00    +0.010 A 
ATOM    151  CZ3 TRP A 11       -1.730   8.575   7.153  0.00  0.00    +0.001 A 
ATOM    152  CH2 TRP A 11       -1.108   8.381   8.402  0.00  0.00    +0.002 A 
ATOM    153  CZ2 TRP A 11       -0.336   7.228   8.628  0.00  0.00    +0.026 A 
ATOM    154  CE2 TRP A 11       -0.194   6.283   7.596  0.00  0.00    +0.047 A 
ATOM    155  NE1 TRP A 11        0.465   5.075   7.504  0.00  0.00    -0.360 N 
ATOM    156  HE1 TRP A 11        0.994   4.632   8.242  0.00  0.00    +0.165 HD
ATOM    157  CD1 TRP A 11        0.301   4.499   6.262  0.00  0.00    +0.087 A 
ENDBRANCH 147 148
ENDBRANCH 101 147
ENDBRANCH  98 101
ENDBRANCH  96  97
BRANCH  96 158
ATOM    158  CB  LEU A 10       -2.783   4.203  -0.686  0.00  0.00    +0.034 C 
BRANCH 158 160
ATOM    159  CD1 LEU A 10       -4.861   5.530   0.053  0.00  0.00    +0.007 C 
ATOM    160  CG  LEU A 10       -3.358   5.586  -0.294  0.00  0.00    -0.015 C 
ATOM    161  CD2 LEU A 10       -3.054   6.636  -1.385  0.00  0.00    +0.007 C 
ENDBRANCH 158 160
ENDBRANCH  96 158
ENDBRANCH  92  96
ENDBRANCH  91  94
BRANCH  91 162
ATOM    162  CB  THR A  9       -2.166  -0.448  -2.553  0.00  0.00    +0.141 C 
ATOM    163  CG2 THR A  9       -2.274  -1.950  -2.864  0.00  0.00    +0.040 C 
BRANCH 162 164
ATOM    164  OG1 THR A  9       -3.470   0.101  -2.631  0.00  0.00    -0.390 OA
ATOM    165  HG1 THR A  9       -3.403   1.056  -2.545  0.00  0.00    +0.210 HD
ENDBRANCH 162 164
ENDBRANCH  91 162
ENDBRANCH  87  91
ENDBRANCH  86  89
BRANCH  86 166
ATOM    166  CB  SER A  8        2.209  -2.693  -1.339  0.00  0.00    +0.187 C 
BRANCH 166 167
ATOM    167  OG  SER A  8        1.710  -3.306  -2.513  0.00  0.00    -0.393 OA
ATOM    168  H   SER A  8        1.764  -4.259  -2.408  0.00  0.00    +0.209 HD
ENDBRANCH 166 167
ENDBRANCH  86 166
ENDBRANCH   1  86
TORSDOF 64
