REMARK  Name = DB15639
REMARK                            x       y       z     vdW  Elec       q    Type
REMARK                         _______ _______ _______ _____ _____    ______ ____
ROOT
ATOM      1  C   LIG    1        6.705   3.462  -0.120  0.00  0.00    +0.155 C 
ATOM      2  C   LIG    1        7.088   3.968  -1.528  0.00  0.00    +0.039 C 
ENDROOT
BRANCH   1   9
ATOM      3  C   LIG    1        1.414   0.159   0.076  0.00  0.00    +0.139 A 
ATOM      4  C   LIG    1        2.069  -1.063  -0.100  0.00  0.00    +0.157 A 
ATOM      5  N   LIG    1        3.409  -1.181  -0.278  0.00  0.00    -0.251 NA
ATOM      6  C   LIG    1        4.150  -0.045  -0.276  0.00  0.00    +0.078 A 
ATOM      7  C   LIG    1        5.592  -0.128  -0.495  0.00  0.00    +0.046 A 
ATOM      8  C   LIG    1        6.301   1.012  -0.448  0.00  0.00    +0.092 A 
ATOM      9  N   LIG    1        5.809   2.277  -0.196  0.00  0.00    -0.304 N 
ATOM     10  C   LIG    1        4.446   2.500  -0.089  0.00  0.00    +0.261 A 
ATOM     11  O   LIG    1        3.952   3.628   0.005  0.00  0.00    -0.267 OA
ATOM     12  C   LIG    1        3.590   1.231  -0.082  0.00  0.00    +0.068 A 
ATOM     13  C   LIG    1        2.201   1.325   0.087  0.00  0.00    +0.062 A 
BRANCH   3  14
ATOM     14  O   LIG    1        0.042   0.130   0.228  0.00  0.00    -0.488 OA
BRANCH  14  15
ATOM     15  C   LIG    1       -0.679   1.360   0.247  0.00  0.00    +0.257 C 
BRANCH  15  16
ATOM     16  C   LIG    1       -2.182   1.055   0.238  0.00  0.00    +0.200 C 
BRANCH  16  18
ATOM     17  C   LIG    1       -4.311   2.103   0.159  0.00  0.00    +0.194 C 
ATOM     18  O   LIG    1       -2.903   2.279   0.206  0.00  0.00    -0.380 OA
ENDBRANCH  16  18
ENDBRANCH  15  16
ENDBRANCH  14  15
ENDBRANCH   3  14
ENDBRANCH   1   9
BRANCH   1  19
ATOM     19  C   LIG    1        7.914   3.214   0.789  0.00  0.00    +0.161 A 
ATOM     20  N   LIG    1        7.811   2.861   2.121  0.00  0.00    -0.282 N 
ATOM     21  C   LIG    1        6.741   2.675   2.958  0.00  0.00    +0.103 A 
ATOM     22  C   LIG    1        6.955   2.295   4.285  0.00  0.00    +0.004 A 
ATOM     23  C   LIG    1        8.267   2.121   4.737  0.00  0.00    +0.052 A 
ATOM     24  C   LIG    1        9.364   2.315   3.893  0.00  0.00    +0.168 A 
ATOM     25  F   LIG    1       10.621   2.137   4.360  0.00  0.00    -0.202 F 
ATOM     26  C   LIG    1        9.135   2.690   2.558  0.00  0.00    +0.197 A 
ATOM     27  N   LIG    1        9.976   2.938   1.526  0.00  0.00    -0.126 NA
ATOM     28  N   LIG    1        9.184   3.256   0.435  0.00  0.00    -0.131 NA
BRANCH  22  29
ATOM     29  C   LIG    1        5.790   2.075   5.193  0.00  0.00    +0.021 A 
ATOM     30  C   LIG    1        5.779   1.915   6.591  0.00  0.00    +0.143 A 
ATOM     31  N   LIG    1        4.579   1.732   7.091  0.00  0.00    -0.179 NA
ATOM     32  N   LIG    1        3.766   1.779   6.032  0.00  0.00    -0.274 N 
ATOM     33  C   LIG    1        2.338   1.588   6.218  0.00  0.00    +0.172 C 
ATOM     34  C   LIG    1        4.445   1.975   4.859  0.00  0.00    +0.116 A 
ENDBRANCH  22  29
ENDBRANCH   1  19
TORSDOF 7
