REMARK  Name = DB15414
REMARK                            x       y       z     vdW  Elec       q    Type
REMARK                         _______ _______ _______ _____ _____    ______ ____
ROOT
ATOM      1  C   LIG    1        1.423   0.133  -0.463  0.00  0.00    +0.129 A 
ATOM      2  C   LIG    1        1.867  -0.606   0.633  0.00  0.00    +0.048 A 
ATOM      3  C   LIG    1        3.232  -0.761   0.860  0.00  0.00    +0.027 A 
ATOM      4  C   LIG    1        4.160  -0.184  -0.021  0.00  0.00    +0.035 A 
ATOM      5  C   LIG    1        3.707   0.566  -1.109  0.00  0.00    +0.027 A 
ATOM      6  C   LIG    1        2.341   0.720  -1.334  0.00  0.00    +0.048 A 
ENDROOT
BRANCH   4   7
ATOM      7  N   LIG    1        5.556  -0.280   0.132  0.00  0.00    -0.269 N 
ATOM      8  H   LIG    1        6.084   0.403  -0.392  0.00  0.00    +0.156 HD
ATOM      9  C   LIG    1        6.269  -1.210   0.801  0.00  0.00    +0.308 C 
ATOM     10  N   LIG    1        7.584  -0.918   0.735  0.00  0.00    -0.269 N 
ATOM     11  H   LIG    1        7.842  -0.138   0.149  0.00  0.00    +0.156 HD
ATOM     12  O   LIG    1        5.789  -2.191   1.371  0.00  0.00    -0.252 OA
BRANCH  10  13
ATOM     13  C   LIG    1        8.673  -1.588   1.325  0.00  0.00    +0.035 A 
ATOM     14  C   LIG    1        9.940  -1.280   0.822  0.00  0.00    +0.037 A 
ATOM     15  C   LIG    1       11.099  -1.878   1.341  0.00  0.00    +0.075 A 
ATOM     16  C   LIG    1       10.969  -2.799   2.396  0.00  0.00    +0.053 A 
ATOM     17 CL   LIG    1       12.343  -3.584   3.099  0.00  0.00    -0.083 Cl
ATOM     18  C   LIG    1        9.708  -3.100   2.911  0.00  0.00    +0.022 A 
ATOM     19  C   LIG    1        8.566  -2.500   2.386  0.00  0.00    +0.025 A 
BRANCH  15  20
ATOM     20  C   LIG    1       12.472  -1.523   0.758  0.00  0.00    +0.419 C 
ATOM     21  F   LIG    1       13.058  -2.620   0.279  0.00  0.00    -0.166 F 
ATOM     22  F   LIG    1       13.248  -1.006   1.711  0.00  0.00    -0.166 F 
ATOM     23  F   LIG    1       12.398  -0.633  -0.234  0.00  0.00    -0.166 F 
ENDBRANCH  15  20
ENDBRANCH  10  13
ENDBRANCH   4   7
BRANCH   1  24
ATOM     24  O   LIG    1        0.074   0.270  -0.688  0.00  0.00    -0.456 OA
BRANCH  24  29
ATOM     25  C   LIG    1       -0.807   3.572   0.793  0.00  0.00    +0.129 A 
ATOM     26  N   LIG    1       -2.129   3.645   0.455  0.00  0.00    -0.250 NA
ATOM     27  C   LIG    1       -2.680   2.619  -0.239  0.00  0.00    +0.115 A 
ATOM     28  C   LIG    1       -1.956   1.492  -0.625  0.00  0.00    +0.066 A 
ATOM     29  C   LIG    1       -0.604   1.405  -0.289  0.00  0.00    +0.132 A 
ATOM     30  C   LIG    1       -0.024   2.463   0.434  0.00  0.00    +0.079 A 
BRANCH  25  34
ATOM     31  C   LIG    1       -0.634   6.941   2.627  0.00  0.00    +0.128 C 
ATOM     32  N   LIG    1       -1.019   5.743   1.888  0.00  0.00    -0.313 N 
ATOM     33  H   LIG    1       -1.983   5.690   1.592  0.00  0.00    +0.149 HD
ATOM     34  C   LIG    1       -0.197   4.723   1.569  0.00  0.00    +0.262 C 
ATOM     35  O   LIG    1        0.996   4.705   1.880  0.00  0.00    -0.269 OA
ENDBRANCH  25  34
ENDBRANCH  24  29
ENDBRANCH   1  24
TORSDOF 6
