REMARK  Name = DB15215
REMARK                            x       y       z     vdW  Elec       q    Type
REMARK                         _______ _______ _______ _____ _____    ______ ____
ROOT
ATOM      1  C   LIG    1        5.627  -4.814  -1.990  0.00  0.00    +0.135 C 
ATOM      2  C   LIG    1        6.341  -3.749  -2.875  0.00  0.00    +0.174 C 
ATOM      3  O   LIG    1        7.092  -4.398  -3.915  0.00  0.00    -0.348 OA
ATOM      4  C   LIG    1        8.125  -5.221  -3.440  0.00  0.00    +0.236 C 
ATOM      5  C   LIG    1        7.531  -6.397  -2.634  0.00  0.00    +0.192 C 
ATOM      6  C   LIG    1        6.673  -5.833  -1.477  0.00  0.00    +0.170 C 
ENDROOT
BRANCH   1   8
ATOM      7  C   LIG    1        3.445  -4.124  -0.959  0.00  0.00    +0.231 C 
ATOM      8  N   LIG    1        4.783  -4.255  -0.922  0.00  0.00    -0.306 N 
ATOM      9  H   LIG    1        5.268  -3.946  -0.093  0.00  0.00    +0.149 HD
ATOM     10  O   LIG    1        2.760  -4.515  -1.908  0.00  0.00    -0.274 OA
BRANCH   7  11
ATOM     11  C   LIG    1        2.807  -3.477   0.286  0.00  0.00    +0.200 C 
BRANCH  11  13
ATOM     12  C   LIG    1        1.051  -1.984  -0.675  0.00  0.00    +0.237 C 
ATOM     13  N   LIG    1        1.421  -3.062   0.041  0.00  0.00    -0.303 N 
ATOM     14  H   LIG    1        0.702  -3.663   0.417  0.00  0.00    +0.149 HD
ATOM     15  O   LIG    1        1.854  -1.199  -1.186  0.00  0.00    -0.271 OA
BRANCH  12  17
ATOM     16  C   LIG    1       -0.970  -0.840  -1.470  0.00  0.00    +0.005 C 
ATOM     17  C   LIG    1       -0.384  -1.844  -0.784  0.00  0.00    +0.067 C 
BRANCH  16  19
ATOM     18  C   LIG    1       -3.283  -1.691  -1.750  0.00  0.00    -0.027 C 
ATOM     19  C   LIG    1       -2.407  -0.678  -1.616  0.00  0.00    -0.004 C 
BRANCH  18  20
ATOM     20  C   LIG    1       -4.785  -1.525  -1.893  0.00  0.00    +0.027 C 
BRANCH  20  21
ATOM     21  C   LIG    1       -5.576  -2.166  -0.740  0.00  0.00    +0.004 C 
BRANCH  21  22
ATOM     22  C   LIG    1       -7.099  -2.006  -0.895  0.00  0.00    +0.000 C 
BRANCH  22  23
ATOM     23  C   LIG    1       -7.890  -2.646   0.260  0.00  0.00    +0.000 C 
BRANCH  23  24
ATOM     24  C   LIG    1       -9.413  -2.479   0.110  0.00  0.00    +0.000 C 
BRANCH  24  25
ATOM     25  C   LIG    1      -10.203  -3.121   1.265  0.00  0.00    -0.000 C 
BRANCH  25  26
ATOM     26  C   LIG    1      -11.726  -2.948   1.118  0.00  0.00    -0.000 C 
BRANCH  26  28
ATOM     27  C   LIG    1      -14.034  -3.409   2.131  0.00  0.00    +0.004 C 
ATOM     28  C   LIG    1      -12.516  -3.580   2.277  0.00  0.00    -0.003 C 
ENDBRANCH  26  28
ENDBRANCH  25  26
ENDBRANCH  24  25
ENDBRANCH  23  24
ENDBRANCH  22  23
ENDBRANCH  21  22
ENDBRANCH  20  21
ENDBRANCH  18  20
ENDBRANCH  16  19
ENDBRANCH  12  17
ENDBRANCH  11  13
ENDBRANCH   7  11
ENDBRANCH   1   8
BRANCH   4  29
ATOM     29  N   LIG    1        8.974  -5.708  -4.489  0.00  0.00    -0.300 N 
ATOM     30  H   LIG    1        8.502  -6.180  -5.247  0.00  0.00    +0.150 HD
BRANCH  29  31
ATOM     31  C   LIG    1       10.327  -6.047  -4.320  0.00  0.00    +0.152 A 
ATOM     32  N   LIG    1       10.985  -5.694  -3.178  0.00  0.00    -0.219 NA
ATOM     33  C   LIG    1       12.294  -6.050  -3.071  0.00  0.00    +0.225 A 
ATOM     34  N   LIG    1       13.054  -6.727  -3.976  0.00  0.00    -0.216 NA
ATOM     35  C   LIG    1       12.371  -7.050  -5.078  0.00  0.00    +0.163 A 
ATOM     36  N   LIG    1       12.790  -7.726  -6.198  0.00  0.00    -0.329 N 
ATOM     37  H   LIG    1       13.697  -8.114  -6.413  0.00  0.00    +0.168 HD
ATOM     38  C   LIG    1       11.701  -7.796  -7.037  0.00  0.00    +0.198 A 
ATOM     39  N   LIG    1       10.620  -7.226  -6.559  0.00  0.00    -0.231 NA
ATOM     40  C   LIG    1       11.009  -6.749  -5.332  0.00  0.00    +0.147 A 
ENDBRANCH  29  31
ENDBRANCH   4  29
BRANCH   5  41
ATOM     41  O   LIG    1        6.809  -7.316  -3.445  0.00  0.00    -0.385 OA
ATOM     42  H   LIG    1        5.935  -6.954  -3.612  0.00  0.00    +0.210 HD
ENDBRANCH   5  41
BRANCH   6  43
ATOM     43  O   LIG    1        6.101  -6.852  -0.674  0.00  0.00    -0.387 OA
ATOM     44  H   LIG    1        6.720  -7.584  -0.624  0.00  0.00    +0.210 HD
ENDBRANCH   6  43
BRANCH   2  45
ATOM     45  C   LIG    1        5.399  -2.696  -3.521  0.00  0.00    +0.170 C 
BRANCH  45  46
ATOM     46  O   LIG    1        6.197  -1.652  -4.055  0.00  0.00    -0.387 OA
ATOM     47  H   LIG    1        6.776  -2.026  -4.724  0.00  0.00    +0.210 HD
ENDBRANCH  45  46
BRANCH  45  48
ATOM     48  C   LIG    1        4.483  -3.255  -4.636  0.00  0.00    +0.189 C 
BRANCH  48  49
ATOM     49  O   LIG    1        3.494  -2.313  -5.000  0.00  0.00    -0.392 OA
ATOM     50  H   LIG    1        3.929  -1.548  -5.384  0.00  0.00    +0.210 HD
ENDBRANCH  48  49
ENDBRANCH  45  48
ENDBRANCH   2  45
TORSDOF 21
