REMARK  Name = DB15355
REMARK                            x       y       z     vdW  Elec       q    Type
REMARK                         _______ _______ _______ _____ _____    ______ ____
ROOT
ATOM      1  C   UNK A  1        3.592  -0.810  -4.932  0.00  0.00    +0.169 C 
ATOM      2  C   UNK A  1        2.406  -0.418  -5.843  0.00  0.00    +0.235 C 
ATOM      3  O   UNK A  1        2.329   0.755  -6.194  0.00  0.00    -0.274 OA
ATOM      4  N   HIS A  2        1.462  -1.297  -6.226  0.00  0.00    -0.302 N 
ATOM      5  H   HIS A  2        0.701  -0.926  -6.776  0.00  0.00    +0.150 HD
ATOM      6  CA  HIS A  2        1.426  -2.753  -6.097  0.00  0.00    +0.161 C 
ATOM      7  C   HIS A  2        1.910  -3.432  -7.399  0.00  0.00    +0.234 C 
ATOM      8  O   HIS A  2        2.247  -4.615  -7.364  0.00  0.00    -0.274 OA
ATOM      9  N   PHE A  3        1.917  -2.677  -8.516  0.00  0.00    -0.302 N 
ATOM     10  H   PHE A  3        1.646  -1.708  -8.431  0.00  0.00    +0.150 HD
ATOM     11  CA  PHE A  3        2.204  -3.102  -9.892  0.00  0.00    +0.163 C 
ATOM     12  C   PHE A  3        1.172  -4.068 -10.514  0.00  0.00    +0.234 C 
ATOM     13  O   PHE A  3        1.427  -4.601 -11.593  0.00  0.00    -0.274 OA
ATOM     14  N   ALA A  4       -0.005  -4.193  -9.867  0.00  0.00    -0.303 N 
ATOM     15  H   ALA A  4       -0.098  -3.703  -8.990  0.00  0.00    +0.149 HD
ATOM     16  CA  ALA A  4       -1.244  -4.842 -10.322  0.00  0.00    +0.156 C 
ATOM     17  CB  ALA A  4       -1.012  -6.273 -10.843  0.00  0.00    +0.038 C 
ATOM     18  C   ALA A  4       -2.056  -3.985 -11.314  0.00  0.00    +0.233 C 
ATOM     19  O   ALA A  4       -3.284  -4.005 -11.244  0.00  0.00    -0.274 OA
ATOM     20  N   GLY A  5       -1.365  -3.197 -12.156  0.00  0.00    -0.305 N 
ATOM     21  H   GLY A  5       -0.357  -3.262 -12.154  0.00  0.00    +0.149 HD
ATOM     22  CA  GLY A  5       -1.936  -2.160 -13.017  0.00  0.00    +0.200 C 
ATOM     23  C   GLY A  5       -1.977  -0.797 -12.299  0.00  0.00    +0.231 C 
ATOM     24  O   GLY A  5       -2.073   0.228 -12.971  0.00  0.00    -0.274 OA
ATOM     25  N   ARG A  6       -1.886  -0.782 -10.956  0.00  0.00    -0.303 N 
ATOM     26  H   ARG A  6       -1.815  -1.666 -10.472  0.00  0.00    +0.149 HD
ATOM     27  CA  ARG A  6       -1.813   0.399 -10.093  0.00  0.00    +0.159 C 
ATOM     28  C   ARG A  6       -0.906   0.086  -8.884  0.00  0.00    +0.234 C 
ATOM     29  O   ARG A  6       -0.802  -1.079  -8.503  0.00  0.00    -0.274 OA
ATOM     30  N   UNK A  7       -0.274   1.088  -8.245  0.00  0.00    -0.302 N 
ATOM     31  H   UNK A  7        0.310   0.851  -7.457  0.00  0.00    +0.150 HD
ATOM     32  C   UNK A  7       -0.293   2.521  -8.560  0.00  0.00    +0.159 C 
ATOM     33  C   UNK A  7       -0.383   3.382  -7.288  0.00  0.00    +0.234 C 
ATOM     34  O   UNK A  7       -0.969   4.462  -7.354  0.00  0.00    -0.274 OA
ATOM     35  N   ASP A  8        0.138   2.875  -6.154  0.00  0.00    -0.302 N 
ATOM     36  H   ASP A  8        0.640   2.000  -6.195  0.00  0.00    +0.150 HD
ATOM     37  CA  ASP A  8        0.070   3.486  -4.817  0.00  0.00    +0.169 C 
ATOM     38  C   ASP A  8       -1.363   3.490  -4.234  0.00  0.00    +0.234 C 
ATOM     39  O   ASP A  8       -1.725   4.411  -3.501  0.00  0.00    -0.274 OA
ATOM     40  N   ARG A  9       -2.145   2.446  -4.569  0.00  0.00    -0.302 N 
ATOM     41  H   ARG A  9       -1.759   1.734  -5.172  0.00  0.00    +0.150 HD
ATOM     42  CA  ARG A  9       -3.522   2.214  -4.126  0.00  0.00    +0.159 C 
ATOM     43  C   ARG A  9       -3.620   2.061  -2.596  0.00  0.00    +0.234 C 
ATOM     44  O   ARG A  9       -3.038   1.124  -2.049  0.00  0.00    -0.274 OA
ATOM     45  N   ILE A 10       -4.376   2.978  -1.959  0.00  0.00    -0.302 N 
ATOM     46  H   ILE A 10       -4.792   3.717  -2.507  0.00  0.00    +0.150 HD
ATOM     47  CA  ILE A 10       -4.707   3.014  -0.522  0.00  0.00    +0.162 C 
ATOM     48  C   ILE A 10       -3.474   3.238   0.406  0.00  0.00    +0.234 C 
ATOM     49  O   ILE A 10       -3.572   3.103   1.623  0.00  0.00    -0.274 OA
ATOM     50  N   UNK A 11       -2.333   3.641  -0.188  0.00  0.00    -0.301 N 
ATOM     51  H   UNK A 11       -2.343   3.781  -1.188  0.00  0.00    +0.150 HD
ATOM     52  C   UNK A 11       -1.014   3.797   0.435  0.00  0.00    +0.184 C 
ATOM     53  C   UNK A 11       -0.469   2.432   0.901  0.00  0.00    +0.236 C 
ATOM     54  O   UNK A 11       -0.320   2.187   2.099  0.00  0.00    -0.274 OA
ATOM     55  N   UNK A 11       -0.222   1.560  -0.090  0.00  0.00    -0.302 N 
ATOM     56  H   UNK A 11       -0.390   1.856  -1.041  0.00  0.00    +0.150 HD
ATOM     57  C   UNK A 11        0.315   0.204   0.049  0.00  0.00    +0.169 C 
ATOM     58  C   UNK A 11        0.032  -0.567  -1.267  0.00  0.00    +0.112 C 
ATOM     59  S   UNK A 11        0.419   0.256  -2.847  0.00  0.00    -0.091 S 
ATOM     60  S   UNK A  1        2.417   0.672  -2.791  0.00  0.00    -0.091 S 
ATOM     61  C   UNK A  1        3.221  -0.824  -3.430  0.00  0.00    +0.112 C 
ENDROOT
BRANCH   1  63
ATOM     62  C   UNK A  0        4.686  -3.130  -4.813  0.00  0.00    +0.214 C 
ATOM     63  N   UNK A  1        4.392  -1.954  -5.407  0.00  0.00    -0.303 N 
ATOM     64  H   UNK A  1        4.784  -1.804  -6.325  0.00  0.00    +0.149 HD
ATOM     65  O   UNK A  0        4.286  -3.464  -3.698  0.00  0.00    -0.276 OA
BRANCH  62  66
ATOM     66  C   UNK A  0        5.558  -4.082  -5.647  0.00  0.00    +0.096 C 
BRANCH  66  67
ATOM     67  C   UNK A  0        5.921  -5.407  -4.940  0.00  0.00    +0.009 C 
BRANCH  67  68
ATOM     68  C   UNK A  0        6.777  -6.333  -5.823  0.00  0.00    +0.000 C 
BRANCH  68  69
ATOM     69  C   UNK A  0        7.124  -7.665  -5.135  0.00  0.00    -0.000 C 
BRANCH  69  71
ATOM     70  C   UNK A  0        8.331  -9.917  -5.329  0.00  0.00    +0.004 C 
ATOM     71  C   UNK A  0        7.988  -8.587  -6.014  0.00  0.00    -0.003 C 
ENDBRANCH  69  71
ENDBRANCH  68  69
ENDBRANCH  67  68
ENDBRANCH  66  67
ENDBRANCH  62  66
ENDBRANCH   1  63
BRANCH  57  72
ATOM     72  C   UNK A 11        1.794   0.153   0.498  0.00  0.00    +0.235 C 
ATOM     73  N   UNK A 11        2.338  -1.077   0.547  0.00  0.00    -0.302 N 
ATOM     74  H   UNK A 11        1.740  -1.853   0.303  0.00  0.00    +0.150 HD
ATOM     75  O   UNK A 11        2.396   1.192   0.770  0.00  0.00    -0.274 OA
BRANCH  73  76
ATOM     76  C   UNK A 11        3.701  -1.476   0.925  0.00  0.00    +0.163 C 
BRANCH  76  77
ATOM     77  C   UNK A 11        3.852  -1.563   2.470  0.00  0.00    +0.237 C 
ATOM     78  N   UNK A 11        4.374  -2.682   3.069  0.00  0.00    -0.286 N 
ATOM     79  C   UNK A 11        4.571  -2.836   4.547  0.00  0.00    +0.162 C 
ATOM     80  C   UNK A 11        4.184  -4.285   4.966  0.00  0.00    +0.234 C 
ATOM     81  O   UNK A 11        3.418  -4.595   5.877  0.00  0.00    -0.274 OA
ATOM     82  N   UNK A 11        4.783  -5.224   4.212  0.00  0.00    -0.301 N 
ATOM     83  H   UNK A 11        4.624  -6.195   4.439  0.00  0.00    +0.150 HD
ATOM     84  C   UNK A 11        5.622  -4.908   3.043  0.00  0.00    +0.176 C 
ATOM     85  C   UNK A 11        5.029  -3.713   2.221  0.00  0.00    +0.140 C 
ATOM     86  O   UNK A 11        3.489  -0.562   3.087  0.00  0.00    -0.274 OA
BRANCH  84  87
ATOM     87  C   UNK A 11        5.717  -6.141   2.112  0.00  0.00    +0.232 C 
ATOM     88  O   UNK A 11        5.008  -7.137   2.263  0.00  0.00    -0.274 OA
ATOM     89  N   UNK A 11        6.618  -6.084   1.125  0.00  0.00    -0.328 N 
ATOM     90  H   UNK A 11        6.725  -6.864   0.493  0.00  0.00    +0.145 HD
ATOM     91  H   UNK A 11        7.205  -5.270   1.013  0.00  0.00    +0.145 HD
ENDBRANCH  84  87
BRANCH  79  92
ATOM     92  C   UNK A 11        4.008  -1.802   5.579  0.00  0.00    +0.033 C 
BRANCH  92  93
ATOM     93  C   UNK A 11        2.460  -1.698   5.706  0.00  0.00    +0.017 C 
BRANCH  93  94
ATOM     94  C   UNK A 11        1.945  -0.337   6.217  0.00  0.00    +0.084 C 
BRANCH  94  95
ATOM     95  N   UNK A 11        2.365  -0.018   7.595  0.00  0.00    -0.283 NA
ATOM     96  H   UNK A 11        1.925  -0.558   8.324  0.00  0.00    +0.125 HD
BRANCH  95  97
ATOM     97  C   UNK A 11        3.293   0.857   8.000  0.00  0.00    +0.167 C 
BRANCH  97  98
ATOM     98  N   UNK A 11        3.531   0.957   9.298  0.00  0.00    -0.297 NA
ATOM     99  H   UNK A 11        3.960   1.793   9.667  0.00  0.00    +0.121 HD
ATOM    100  H   UNK A 11        3.279   0.200   9.916  0.00  0.00    +0.121 HD
ENDBRANCH  97  98
BRANCH  97 101
ATOM    101  N   UNK A 11        3.994   1.632   7.179  0.00  0.00    -0.297 NA
ATOM    102  H   UNK A 11        3.817   1.598   6.185  0.00  0.00    +0.121 HD
ATOM    103  H   UNK A 11        4.700   2.252   7.549  0.00  0.00    +0.121 HD
ENDBRANCH  97 101
ENDBRANCH  95  97
ENDBRANCH  94  95
ENDBRANCH  93  94
ENDBRANCH  92  93
ENDBRANCH  79  92
ENDBRANCH  76  77
BRANCH  76 104
ATOM    104  C   UNK A 11        4.779  -0.563   0.284  0.00  0.00    +0.067 C 
BRANCH 104 105
ATOM    105  C   UNK A 11        6.170  -1.167   0.223  0.00  0.00    -0.045 A 
ATOM    106  C   UNK A 11        6.489  -2.090  -0.795  0.00  0.00    +0.007 A 
ATOM    107  C   UNK A 11        7.766  -2.683  -0.838  0.00  0.00    +0.045 A 
ATOM    108  C   UNK A 11        8.728  -2.353   0.137  0.00  0.00    +0.117 A 
ATOM    109  C   UNK A 11        8.414  -1.426   1.151  0.00  0.00    +0.045 A 
ATOM    110  C   UNK A 11        7.138  -0.832   1.193  0.00  0.00    +0.007 A 
BRANCH 108 111
ATOM    111  O   UNK A 11        9.963  -2.932   0.100  0.00  0.00    -0.507 OA
ATOM    112  H   UNK A 11       10.077  -3.531  -0.641  0.00  0.00    +0.292 HD
ENDBRANCH 108 111
ENDBRANCH 104 105
ENDBRANCH  76 104
ENDBRANCH  73  76
ENDBRANCH  57  72
BRANCH  47 113
ATOM    113  CB  ILE A 10       -5.607   1.785  -0.113  0.00  0.00    +0.015 C 
ATOM    114  CG2 ILE A 10       -5.959   1.613   1.383  0.00  0.00    +0.010 C 
BRANCH 113 115
ATOM    115  CG1 ILE A 10       -6.917   1.745  -0.945  0.00  0.00    +0.002 C 
ATOM    116  CD1 ILE A 10       -7.849   2.954  -0.762  0.00  0.00    +0.004 C 
ENDBRANCH 113 115
ENDBRANCH  47 113
BRANCH  42 117
ATOM    117  CB  ARG A  9       -4.080   0.983  -4.886  0.00  0.00    +0.033 C 
BRANCH 117 118
ATOM    118  CG  ARG A  9       -5.441   0.452  -4.378  0.00  0.00    +0.017 C 
BRANCH 118 119
ATOM    119  CD  ARG A  9       -6.049  -0.682  -5.224  0.00  0.00    +0.084 C 
BRANCH 119 120
ATOM    120  NE  ARG A  9       -6.648  -0.216  -6.489  0.00  0.00    -0.283 NA
ATOM    121  HE  ARG A  9       -6.038  -0.236  -7.293  0.00  0.00    +0.125 HD
BRANCH 120 122
ATOM    122  CZ  ARG A  9       -7.911   0.225  -6.664  0.00  0.00    +0.167 C 
BRANCH 122 123
ATOM    123  NH1 ARG A  9       -8.788   0.325  -5.649  0.00  0.00    -0.297 NA
ATOM    124 HH11 ARG A  9       -8.511   0.063  -4.714  0.00  0.00    +0.121 HD
ATOM    125 HH12 ARG A  9       -9.730   0.650  -5.816  0.00  0.00    +0.121 HD
ENDBRANCH 122 123
BRANCH 122 126
ATOM    126  NH2 ARG A  9       -8.311   0.572  -7.894  0.00  0.00    -0.297 NA
ATOM    127 HH21 ARG A  9       -7.682   0.480  -8.678  0.00  0.00    +0.121 HD
ATOM    128 HH22 ARG A  9       -9.258   0.890  -8.048  0.00  0.00    +0.121 HD
ENDBRANCH 122 126
ENDBRANCH 120 122
ENDBRANCH 119 120
ENDBRANCH 118 119
ENDBRANCH 117 118
ENDBRANCH  42 117
BRANCH  52 129
ATOM    129  C   UNK A 11       -1.027   4.902   1.521  0.00  0.00    +0.187 C 
BRANCH 129 130
ATOM    130  O   UNK A 11        0.280   5.200   1.972  0.00  0.00    -0.393 OA
ATOM    131  H   UNK A 11        0.761   5.620   1.255  0.00  0.00    +0.209 HD
ENDBRANCH 129 130
ENDBRANCH  52 129
BRANCH   6 132
ATOM    132  CB  HIS A  2       -0.018  -3.175  -5.747  0.00  0.00    +0.057 C 
BRANCH 132 133
ATOM    133  CG  HIS A  2       -0.223  -4.650  -5.484  0.00  0.00    +0.059 C 
ATOM    134  ND1 HIS A  2        0.546  -5.344  -4.560  0.00  0.00    -0.290 NA
ATOM    135  HD1 HIS A  2        1.226  -4.952  -3.924  0.00  0.00    +0.124 HD
ATOM    136  CE1 HIS A  2        0.227  -6.632  -4.673  0.00  0.00    +0.155 C 
ATOM    137  NE2 HIS A  2       -0.667  -6.835  -5.638  0.00  0.00    -0.293 NA
ATOM    138  HE2 HIS A  2       -1.046  -7.725  -5.931  0.00  0.00    +0.124 HD
ATOM    139  CD2 HIS A  2       -0.940  -5.596  -6.195  0.00  0.00    +0.096 C 
ENDBRANCH 132 133
ENDBRANCH   6 132
BRANCH  11 140
ATOM    140  CB  PHE A  3        3.684  -3.523 -10.084  0.00  0.00    +0.067 C 
BRANCH 140 141
ATOM    141  CG  PHE A  3        4.652  -2.353 -10.045  0.00  0.00    -0.045 A 
ATOM    142  CD2 PHE A  3        5.160  -1.895  -8.813  0.00  0.00    +0.004 A 
ATOM    143  CE2 PHE A  3        5.944  -0.751  -8.760  0.00  0.00    +0.000 A 
ATOM    144  CZ  PHE A  3        6.216  -0.038  -9.920  0.00  0.00    +0.000 A 
ATOM    145  CE1 PHE A  3        5.697  -0.458 -11.139  0.00  0.00    +0.000 A 
ATOM    146  CD1 PHE A  3        4.903  -1.595 -11.208  0.00  0.00    +0.004 A 
ENDBRANCH 140 141
ENDBRANCH  11 140
BRANCH  27 147
ATOM    147  CB  ARG A  6       -3.228   0.809  -9.614  0.00  0.00    +0.033 C 
BRANCH 147 148
ATOM    148  CG  ARG A  6       -4.162   1.286 -10.737  0.00  0.00    +0.017 C 
BRANCH 148 149
ATOM    149  CD  ARG A  6       -5.478   1.877 -10.212  0.00  0.00    +0.084 C 
BRANCH 149 150
ATOM    150  NE  ARG A  6       -6.280   2.454 -11.304  0.00  0.00    -0.283 NA
ATOM    151  HE  ARG A  6       -5.997   2.178 -12.235  0.00  0.00    +0.125 HD
BRANCH 150 152
ATOM    152  CZ  ARG A  6       -7.331   3.291 -11.202  0.00  0.00    +0.167 C 
BRANCH 152 153
ATOM    153  NH2 ARG A  6       -7.943   3.695 -12.323  0.00  0.00    -0.297 NA
ATOM    154 HH21 ARG A  6       -8.731   4.326 -12.276  0.00  0.00    +0.121 HD
ATOM    155 HH22 ARG A  6       -7.617   3.376 -13.224  0.00  0.00    +0.121 HD
ENDBRANCH 152 153
BRANCH 152 156
ATOM    156  NH1 ARG A  6       -7.787   3.735 -10.019  0.00  0.00    -0.297 NA
ATOM    157 HH11 ARG A  6       -7.326   3.462  -9.163  0.00  0.00    +0.121 HD
ATOM    158 HH12 ARG A  6       -8.573   4.369  -9.984  0.00  0.00    +0.121 HD
ENDBRANCH 152 156
ENDBRANCH 150 152
ENDBRANCH 149 150
ENDBRANCH 148 149
ENDBRANCH 147 148
ENDBRANCH  27 147
BRANCH  37 159
ATOM    159  CB  ASP A  8        0.779   4.868  -4.692  0.00  0.00    +0.152 C 
BRANCH 159 160
ATOM    160  CG  ASP A  8        2.224   4.950  -5.223  0.00  0.00    +0.307 C 
ATOM    161  OD2 ASP A  8        2.663   6.097  -5.462  0.00  0.00    -0.251 OA
BRANCH 160 162
ATOM    162  OD1 ASP A  8        2.923   3.911  -5.237  0.00  0.00    -0.481 OA
ATOM    163  HD1 ASP A  8        3.803   3.942  -5.556  0.00  0.00    +0.295 HD
ENDBRANCH 160 162
ENDBRANCH 159 160
ENDBRANCH  37 159
BRANCH  32 164
ATOM    164  C   UNK A  7        0.879   2.936  -9.478  0.00  0.00    +0.032 C 
BRANCH 164 165
ATOM    165  C   UNK A  7        2.280   2.521  -8.976  0.00  0.00    +0.002 C 
BRANCH 165 166
ATOM    166  C   UNK A  7        3.434   2.942  -9.903  0.00  0.00    -0.003 C 
ATOM    167  C   UNK A  7        3.401   2.279 -11.289  0.00  0.00    +0.004 C 
ENDBRANCH 165 166
ENDBRANCH 164 165
ENDBRANCH  32 164
TORSDOF 48
