REMARK  Name = DB15462
REMARK                            x       y       z     vdW  Elec       q    Type
REMARK                         _______ _______ _______ _____ _____    ______ ____
ROOT
ATOM      1  C   LIG    1       -0.735   1.002   0.245  0.00  0.00    -0.050 C 
ATOM      2  C   LIG    1        0.062  -0.083   0.085  0.00  0.00    +0.003 C 
ATOM      3  C   LIG    1       -0.216   2.345   0.746  0.00  0.00    +0.044 C 
ENDROOT
BRANCH   1   5
ATOM      4  C   LIG    1       -2.949  -0.146   0.319  0.00  0.00    +0.001 C 
ATOM      5  C   LIG    1       -2.167   0.901  -0.012  0.00  0.00    +0.003 C 
BRANCH   4   7
ATOM      6  C   LIG    1       -5.238  -1.198   0.268  0.00  0.00    -0.043 C 
ATOM      7  C   LIG    1       -4.377  -0.172   0.037  0.00  0.00    +0.004 C 
ATOM      8  C   LIG    1       -4.783  -2.535   0.843  0.00  0.00    +0.044 C 
BRANCH   6  16
ATOM      9  C   LIG    1       -8.724   4.051   0.010  0.00  0.00    +0.180 C 
ATOM     10  C   LIG    1       -7.895   3.504  -1.165  0.00  0.00    +0.056 C 
ATOM     11  C   LIG    1       -8.161   2.000  -1.481  0.00  0.00    -0.000 C 
ATOM     12  C   LIG    1       -9.590   1.809  -2.049  0.00  0.00    +0.016 C 
ATOM     13  C   LIG    1       -7.101   1.588  -2.547  0.00  0.00    +0.016 C 
ATOM     14  C   LIG    1       -8.023   1.186  -0.148  0.00  0.00    +0.009 C 
ATOM     15  C   LIG    1       -7.360   0.039  -0.110  0.00  0.00    -0.117 C 
ATOM     16  C   LIG    1       -6.663  -1.075  -0.050  0.00  0.00    +0.054 C 
ATOM     17  C   LIG    1       -8.716   1.744   1.135  0.00  0.00    +0.095 C 
ATOM     18  C   LIG    1       -8.336   1.010   2.454  0.00  0.00    +0.047 C 
ATOM     19  C   LIG    1       -8.375   3.248   1.279  0.00  0.00    +0.084 C 
BRANCH  17  20
ATOM     20  O   LIG    1      -10.120   1.581   1.038  0.00  0.00    -0.384 OA
ATOM     21  H   LIG    1      -10.523   1.947   1.829  0.00  0.00    +0.211 HD
ENDBRANCH  17  20
BRANCH   9  22
ATOM     22  O   LIG    1       -8.461   5.446   0.167  0.00  0.00    -0.461 OA
BRANCH  22  24
ATOM     23  O   LIG    1      -10.403   5.936   1.312  0.00  0.00    -0.251 OA
ATOM     24  C   LIG    1       -9.328   6.263   0.807  0.00  0.00    +0.304 C 
ATOM     25  C   LIG    1       -8.836   7.704   0.853  0.00  0.00    +0.136 C 
ENDBRANCH  22  24
ENDBRANCH   9  22
ENDBRANCH   6  16
ENDBRANCH   4   7
ENDBRANCH   1   5
BRANCH   2  26
ATOM     26  C   LIG    1        1.500  -0.141   0.300  0.00  0.00    +0.000 C 
ATOM     27  C   LIG    1        2.209  -1.280   0.202  0.00  0.00    +0.000 C 
BRANCH  27  28
ATOM     28  C   LIG    1        3.648  -1.322   0.412  0.00  0.00    +0.003 C 
ATOM     29  C   LIG    1        4.452  -2.412   0.348  0.00  0.00    -0.050 C 
ATOM     30  C   LIG    1        3.943  -3.807   0.001  0.00  0.00    +0.044 C 
BRANCH  29  31
ATOM     31  C   LIG    1        5.884  -2.261   0.574  0.00  0.00    +0.003 C 
ATOM     32  C   LIG    1        6.646  -1.274   0.062  0.00  0.00    +0.001 C 
BRANCH  32  33
ATOM     33  C   LIG    1        8.069  -1.154   0.334  0.00  0.00    +0.007 C 
ATOM     34  C   LIG    1        8.905  -0.227  -0.196  0.00  0.00    -0.008 C 
ATOM     35  C   LIG    1        8.506   0.836  -1.222  0.00  0.00    +0.047 C 
BRANCH  34  36
ATOM     36  C   LIG    1       10.327  -0.229   0.200  0.00  0.00    +0.162 C 
ATOM     37  O   LIG    1       10.904  -1.266   0.535  0.00  0.00    -0.292 OA
BRANCH  36  38
ATOM     38  C   LIG    1       11.072   1.125   0.234  0.00  0.00    +0.117 C 
BRANCH  38  39
ATOM     39  C   LIG    1       12.564   1.164   0.714  0.00  0.00    +0.111 C 
ATOM     40  C   LIG    1       13.667   0.862  -0.297  0.00  0.00    +0.100 C 
ATOM     41  C   LIG    1       13.333   0.506  -1.758  0.00  0.00    +0.045 C 
ATOM     42  C   LIG    1       15.058   1.488  -0.104  0.00  0.00    +0.069 C 
ATOM     43  C   LIG    1       15.421   1.693   1.370  0.00  0.00    +0.118 C 
ATOM     44  C   LIG    1       14.364   2.541   2.091  0.00  0.00    +0.040 C 
ATOM     45  O   LIG    1       13.280  -0.057   0.678  0.00  0.00    -0.360 OA
ATOM     46  C   LIG    1       12.855   2.128   1.936  0.00  0.00    -0.000 C 
ATOM     47  C   LIG    1       12.489   1.385   3.242  0.00  0.00    +0.014 C 
ATOM     48  C   LIG    1       12.072   3.470   1.860  0.00  0.00    +0.014 C 
BRANCH  43  49
ATOM     49  O   LIG    1       16.712   2.255   1.500  0.00  0.00    -0.392 OA
ATOM     50  H   LIG    1       16.713   3.117   1.076  0.00  0.00    +0.210 HD
ENDBRANCH  43  49
ENDBRANCH  38  39
ENDBRANCH  36  38
ENDBRANCH  34  36
ENDBRANCH  32  33
ENDBRANCH  29  31
ENDBRANCH  27  28
ENDBRANCH   2  26
TORSDOF 14
