REMARK  Name = DB15435
REMARK                            x       y       z     vdW  Elec       q    Type
REMARK                         _______ _______ _______ _____ _____    ______ ____
ROOT
ATOM      1  C   LIG    1       -6.605  -1.366   0.085  0.00  0.00    +0.022 A 
ATOM      2  C   LIG    1       -6.425   0.017   0.120  0.00  0.00    +0.121 A 
ATOM      3  N   LIG    1       -5.215   0.631   0.083  0.00  0.00    -0.252 NA
ATOM      4  C   LIG    1       -4.135  -0.154   0.007  0.00  0.00    +0.096 A 
ATOM      5  C   LIG    1       -2.778   0.189  -0.054  0.00  0.00    +0.026 A 
ATOM      6  C   LIG    1       -2.108   1.420  -0.055  0.00  0.00    +0.012 A 
ATOM      7  C   LIG    1       -0.718   1.428  -0.123  0.00  0.00    +0.007 A 
ATOM      8  C   LIG    1        0.026   0.243  -0.190  0.00  0.00    -0.015 A 
ATOM      9  C   LIG    1       -0.631  -0.996  -0.196  0.00  0.00    +0.033 A 
ATOM     10  C   LIG    1       -2.032  -1.016  -0.126  0.00  0.00    +0.053 A 
ATOM     11  N   LIG    1       -2.936  -2.080  -0.103  0.00  0.00    -0.331 N 
ATOM     12  C   LIG    1       -4.228  -1.571  -0.022  0.00  0.00    +0.070 A 
ATOM     13  C   LIG    1       -5.482  -2.198   0.027  0.00  0.00    +0.039 A 
ENDROOT
BRANCH   1  16
ATOM     14  C   LIG    1       -7.759  -3.612  -1.824  0.00  0.00    +0.175 C 
ATOM     15  N   LIG    1       -8.447  -2.921  -0.743  0.00  0.00    -0.247 N 
ATOM     16  C   LIG    1       -7.978  -1.946   0.114  0.00  0.00    +0.093 A 
ATOM     17  C   LIG    1       -9.077  -1.680   0.935  0.00  0.00    +0.088 A 
ATOM     18  C   LIG    1       -9.222  -0.706   2.083  0.00  0.00    +0.070 C 
ATOM     19  N   LIG    1      -10.093  -2.456   0.598  0.00  0.00    -0.134 NA
ATOM     20  N   LIG    1       -9.706  -3.258  -0.455  0.00  0.00    -0.065 NA
ENDBRANCH   1  16
BRANCH   8  21
ATOM     21  C   LIG    1        1.569   0.260  -0.263  0.00  0.00    +0.085 C 
ATOM     22  C   LIG    1        2.058  -0.329  -1.604  0.00  0.00    +0.046 C 
ATOM     23  C   LIG    1        2.187  -0.490   0.939  0.00  0.00    +0.046 C 
BRANCH  21  24
ATOM     24  O   LIG    1        2.120   1.567  -0.204  0.00  0.00    -0.385 OA
ATOM     25  H   LIG    1        3.076   1.495  -0.254  0.00  0.00    +0.211 HD
ENDBRANCH  21  24
ENDBRANCH   8  21
BRANCH  11  26
ATOM     26  C   LIG    1       -2.599  -3.521  -0.168  0.00  0.00    +0.121 C 
BRANCH  26  27
ATOM     27  C   LIG    1       -1.494  -3.951   0.824  0.00  0.00    -0.024 A 
ATOM     28  C   LIG    1       -0.478  -4.853   0.471  0.00  0.00    +0.006 A 
ATOM     29  C   LIG    1        0.501  -5.211   1.394  0.00  0.00    +0.000 A 
ATOM     30  C   LIG    1        0.468  -4.679   2.680  0.00  0.00    +0.000 A 
ATOM     31  C   LIG    1       -0.541  -3.797   3.053  0.00  0.00    +0.000 A 
ATOM     32  C   LIG    1       -1.520  -3.441   2.130  0.00  0.00    +0.006 A 
ENDBRANCH  26  27
BRANCH  26  33
ATOM     33  C   LIG    1       -2.469  -4.023  -1.651  0.00  0.00    +0.021 C 
ATOM     34  C   LIG    1       -3.776  -3.870  -2.469  0.00  0.00    +0.034 C 
ATOM     35  C   LIG    1       -3.617  -4.444  -3.890  0.00  0.00    +0.160 C 
ATOM     36  O   LIG    1       -2.525  -3.802  -4.549  0.00  0.00    -0.380 OA
ATOM     37  C   LIG    1       -1.266  -3.979  -3.899  0.00  0.00    +0.160 C 
ATOM     38  C   LIG    1       -1.324  -3.385  -2.478  0.00  0.00    +0.034 C 
ENDBRANCH  26  33
ENDBRANCH  11  26
TORSDOF 6
