REMARK  Name = DB15027
REMARK                            x       y       z     vdW  Elec       q    Type
REMARK                         _______ _______ _______ _____ _____    ______ ____
ROOT
ATOM      1  C   LIG    1        1.670   0.236   0.015  0.00  0.00    +0.128 A 
ATOM      2  N   LIG    1        2.339   1.340  -0.422  0.00  0.00    -0.200 NA
ATOM      3  C   LIG    1        3.674   1.218  -0.618  0.00  0.00    +0.216 A 
ATOM      4  N   LIG    1        4.397   0.088  -0.429  0.00  0.00    -0.200 NA
ATOM      5  C   LIG    1        3.718  -1.015  -0.008  0.00  0.00    +0.126 A 
ATOM      6  C   LIG    1        2.338  -0.981   0.220  0.00  0.00    +0.087 A 
ENDROOT
BRANCH   1   9
ATOM      7  C   LIG    1       -1.976   1.335   0.376  0.00  0.00    -0.053 C 
ATOM      8  C   LIG    1       -0.479   1.607   0.145  0.00  0.00    +0.091 C 
ATOM      9  N   LIG    1        0.279   0.355   0.167  0.00  0.00    -0.317 N 
ATOM     10  C   LIG    1       -0.604  -0.605   0.820  0.00  0.00    +0.105 C 
ATOM     11  C   LIG    1       -2.034  -0.185   0.503  0.00  0.00    +0.005 C 
BRANCH   7  13
ATOM     12  C   LIG    1       -2.676   3.637   1.320  0.00  0.00    -0.100 C 
ATOM     13  N   LIG    1       -2.591   2.120   1.549  0.00  0.00    +0.380 N 
ATOM     14  H   LIG    1       -3.526   1.772   1.710  0.00  0.00    -0.086 HD
ATOM     15  H   LIG    1       -2.050   1.938   2.383  0.00  0.00    -0.086 HD
ENDBRANCH   7  13
ENDBRANCH   1   9
BRANCH   3  16
ATOM     16  N   LIG    1        4.359   2.347  -1.053  0.00  0.00    -0.327 N 
ATOM     17  H   LIG    1        5.353   2.289  -1.217  0.00  0.00    +0.145 HD
ATOM     18  H   LIG    1        3.850   3.204  -1.209  0.00  0.00    +0.145 HD
ENDBRANCH   3  16
BRANCH   5  19
ATOM     19  N   LIG    1        4.398  -2.225   0.200  0.00  0.00    -0.329 N 
ATOM     20  H   LIG    1        3.901  -3.001   0.612  0.00  0.00    +0.147 HD
BRANCH  19  21
ATOM     21  C   LIG    1        5.850  -2.312   0.094  0.00  0.00    +0.106 C 
BRANCH  21  22
ATOM     22  C   LIG    1        6.370  -3.738   0.320  0.00  0.00    +0.006 C 
ATOM     23  C   LIG    1        7.791  -3.948   0.776  0.00  0.00    +0.005 C 
ATOM     24  C   LIG    1        6.634  -4.232   1.720  0.00  0.00    +0.005 C 
ENDBRANCH  21  22
ENDBRANCH  19  21
ENDBRANCH   5  19
TORSDOF 6
