REMARK  Name = DB15294
REMARK                            x       y       z     vdW  Elec       q    Type
REMARK                         _______ _______ _______ _____ _____    ______ ____
ROOT
ATOM      1  C   LIG    1       -1.955   1.235   0.072  0.00  0.00    +0.126 A 
ATOM      2  C   LIG    1       -2.830   0.145   0.205  0.00  0.00    +0.048 A 
ATOM      3  C   LIG    1       -4.207   0.343   0.278  0.00  0.00    +0.027 A 
ATOM      4  C   LIG    1       -4.751   1.628   0.223  0.00  0.00    +0.034 A 
ATOM      5  C   LIG    1       -3.879   2.718   0.099  0.00  0.00    +0.032 A 
ATOM      6  N   LIG    1       -6.155   1.730   0.279  0.00  0.00    -0.284 N 
ATOM      7  H   LIG    1       -6.616   0.831   0.283  0.00  0.00    +0.155 HD
ATOM      8  C   LIG    1       -7.066   2.799   0.290  0.00  0.00    +0.220 A 
ATOM      9  N   LIG    1       -6.622   4.083   0.332  0.00  0.00    -0.211 NA
ATOM     10  C   LIG    1       -7.556   5.074   0.333  0.00  0.00    +0.111 A 
ATOM     11  C   LIG    1       -8.925   4.792   0.295  0.00  0.00    +0.051 A 
ATOM     12  C   LIG    1       -9.292   3.445   0.260  0.00  0.00    +0.116 A 
ATOM     13  C   LIG    1       -7.042   6.473   0.374  0.00  0.00    +0.154 A 
ATOM     14  O   LIG    1       -5.700   6.652   0.524  0.00  0.00    -0.456 OA
ATOM     15  C   LIG    1       -5.449   7.987   0.546  0.00  0.00    +0.131 A 
ATOM     16  C   LIG    1       -6.643   8.677   0.408  0.00  0.00    +0.048 A 
ATOM     17  C   LIG    1       -4.008   8.394   0.734  0.00  0.00    +0.234 C 
ATOM     18  O   LIG    1       -3.557   7.890   1.986  0.00  0.00    -0.368 OA
ATOM     19  C   LIG    1       -2.170   8.049   2.261  0.00  0.00    +0.187 C 
ATOM     20  C   LIG    1       -1.313   7.108   1.431  0.00  0.00    -0.001 C 
ATOM     21  C   LIG    1       -0.774   5.966   1.892  0.00  0.00    -0.001 C 
ATOM     22  C   LIG    1        0.066   5.006   1.071  0.00  0.00    +0.187 C 
ATOM     23  O   LIG    1       -0.600   3.761   0.902  0.00  0.00    -0.371 OA
ATOM     24  C   LIG    1       -1.590   3.751  -0.125  0.00  0.00    +0.199 C 
ATOM     25  C   LIG    1       -7.652   7.719   0.301  0.00  0.00    +0.052 A 
ATOM     26  N   LIG    1       -8.377   2.440   0.258  0.00  0.00    -0.223 NA
ATOM     27  C   LIG    1       -2.494   2.531   0.026  0.00  0.00    +0.021 A 
ENDROOT
BRANCH   1  28
ATOM     28  O   LIG    1       -0.581   1.108  -0.022  0.00  0.00    -0.493 OA
BRANCH  28  29
ATOM     29  C   LIG    1        0.022  -0.179   0.087  0.00  0.00    +0.210 C 
BRANCH  29  30
ATOM     30  C   LIG    1        1.553  -0.044  -0.001  0.00  0.00    -0.037 C 
BRANCH  30  31
ATOM     31  N   LIG    1        1.972   0.756  -1.255  0.00  0.00    +0.382 N 
ATOM     32  H   LIG    1        1.471   1.634  -1.236  0.00  0.00    -0.082 HD
ATOM     33  C   LIG    1        1.674   0.052  -2.590  0.00  0.00    -0.079 C 
ATOM     34  C   LIG    1        2.585   0.755  -3.596  0.00  0.00    -0.020 C 
ATOM     35  C   LIG    1        3.767   1.318  -2.802  0.00  0.00    -0.020 C 
ATOM     36  C   LIG    1        3.481   1.050  -1.321  0.00  0.00    -0.079 C 
ENDBRANCH  30  31
ENDBRANCH  29  30
ENDBRANCH  28  29
ENDBRANCH   1  28
TORSDOF 4
