REMARK  Name = DB15011
REMARK                            x       y       z     vdW  Elec       q    Type
REMARK                         _______ _______ _______ _____ _____    ______ ____
ROOT
ATOM      1  C   LIG    1        1.475  -0.054   0.007  0.00  0.00    +0.100 C 
ATOM      2  C   LIG    1        2.112   1.359  -0.291  0.00  0.00    +0.118 C 
ATOM      3  N   LIG    1        3.582   1.162  -0.284  0.00  0.00    -0.290 N 
ATOM      4  C   LIG    1        4.377   1.846   0.588  0.00  0.00    +0.250 C 
ATOM      5  O   LIG    1        3.945   2.645   1.422  0.00  0.00    -0.270 OA
ATOM      6  C   LIG    1        4.106   0.207  -1.284  0.00  0.00    +0.109 C 
ATOM      7  C   LIG    1        3.546  -1.183  -0.930  0.00  0.00    +0.020 C 
ATOM      8  C   LIG    1        2.007  -1.205  -0.899  0.00  0.00    +0.016 C 
ENDROOT
BRANCH   4   9
ATOM      9  C   LIG    1        5.867   1.619   0.532  0.00  0.00    +0.075 A 
ATOM     10  C   LIG    1        6.510   0.746   1.437  0.00  0.00    -0.036 A 
ATOM     11  C   LIG    1        5.742  -0.024   2.508  0.00  0.00    +0.044 C 
ATOM     12  C   LIG    1        7.896   0.573   1.358  0.00  0.00    +0.004 A 
ATOM     13  C   LIG    1        8.645   1.258   0.404  0.00  0.00    +0.003 A 
ATOM     14  C   LIG    1        8.015   2.129  -0.480  0.00  0.00    +0.039 A 
ATOM     15  C   LIG    1        6.634   2.314  -0.418  0.00  0.00    +0.136 A 
ATOM     16  F   LIG    1        6.052   3.170  -1.293  0.00  0.00    -0.205 F 
ENDBRANCH   4   9
BRANCH   2  17
ATOM     17  C   LIG    1        1.606   2.202  -1.478  0.00  0.00    -0.026 A 
ATOM     18  C   LIG    1        1.892   3.571  -1.473  0.00  0.00    +0.007 A 
ATOM     19  C   LIG    1        1.473   4.388  -2.518  0.00  0.00    +0.023 A 
ATOM     20  C   LIG    1        0.748   3.847  -3.586  0.00  0.00    +0.027 A 
ATOM     21  C   LIG    1        0.448   2.484  -3.588  0.00  0.00    +0.023 A 
ATOM     22  C   LIG    1        0.872   1.667  -2.544  0.00  0.00    +0.007 A 
BRANCH  20  23
ATOM     23  N   LIG    1        0.303   4.615  -4.677  0.00  0.00    -0.341 N 
ATOM     24  H   LIG    1       -0.216   4.160  -5.413  0.00  0.00    +0.146 HD
BRANCH  23  25
ATOM     25  C   LIG    1        0.542   6.053  -4.793  0.00  0.00    +0.070 C 
ATOM     26  C   LIG    1        0.183   6.573  -6.201  0.00  0.00    +0.022 C 
ATOM     27  C   LIG    1       -1.142   7.322  -6.049  0.00  0.00    +0.002 C 
ATOM     28  C   LIG    1       -1.047   7.942  -4.658  0.00  0.00    +0.002 C 
ATOM     29  C   LIG    1       -0.332   6.880  -3.817  0.00  0.00    +0.022 C 
ENDBRANCH  23  25
ENDBRANCH  20  23
ENDBRANCH   2  17
BRANCH   1  32
ATOM     30  N   LIG    1       -0.712  -1.226   0.020  0.00  0.00    -0.285 N 
ATOM     31  H   LIG    1       -0.119  -2.041  -0.044  0.00  0.00    +0.155 HD
ATOM     32  C   LIG    1       -0.078  -0.034   0.102  0.00  0.00    +0.222 C 
ATOM     33  O   LIG    1       -0.656   1.034   0.309  0.00  0.00    -0.275 OA
BRANCH  30  38
ATOM     34  C   LIG    1       -6.275  -2.640   0.223  0.00  0.00    +0.044 C 
ATOM     35  C   LIG    1       -4.794  -2.284   0.170  0.00  0.00    -0.039 A 
ATOM     36  C   LIG    1       -3.783  -3.248   0.365  0.00  0.00    +0.059 A 
ATOM     37  C   LIG    1       -2.441  -2.842   0.306  0.00  0.00    +0.036 A 
ATOM     38  C   LIG    1       -2.090  -1.512   0.066  0.00  0.00    +0.034 A 
ATOM     39  C   LIG    1       -3.106  -0.568  -0.141  0.00  0.00    +0.023 A 
ATOM     40  C   LIG    1       -4.442  -0.955  -0.083  0.00  0.00    +0.006 A 
BRANCH  36  41
ATOM     41  C   LIG    1       -4.117  -4.723   0.635  0.00  0.00    +0.418 C 
ATOM     42  F   LIG    1       -4.824  -5.226  -0.377  0.00  0.00    -0.166 F 
ATOM     43  F   LIG    1       -4.829  -4.833   1.756  0.00  0.00    -0.166 F 
ATOM     44  F   LIG    1       -3.026  -5.480   0.776  0.00  0.00    -0.166 F 
ENDBRANCH  36  41
ENDBRANCH  30  38
ENDBRANCH   1  32
TORSDOF 7
