REMARK  Name = DB15096
REMARK                            x       y       z     vdW  Elec       q    Type
REMARK                         _______ _______ _______ _____ _____    ______ ____
ROOT
ATOM      1  C   LIG    1        1.982  -1.452  -0.195  0.00  0.00    -0.021 C 
ATOM      2  C   LIG    1        3.540  -1.520  -0.069  0.00  0.00    -0.042 C 
ATOM      3  C   LIG    1        4.053  -3.018   0.044  0.00  0.00    +0.096 C 
ATOM      4  C   LIG    1        3.424  -3.840  -1.160  0.00  0.00    +0.024 C 
ATOM      5  C   LIG    1        2.709  -2.916  -2.181  0.00  0.00    -0.026 C 
ATOM      6  C   LIG    1        3.766  -1.849  -2.600  0.00  0.00    -0.075 C 
ATOM      7  C   LIG    1        5.590  -3.160  -0.018  0.00  0.00    +0.036 A 
ATOM      8  N   LIG    1        6.209  -4.392   0.042  0.00  0.00    -0.357 N 
ATOM      9  H   LIG    1        5.681  -5.248   0.131  0.00  0.00    +0.166 HD
ATOM     10  C   LIG    1        7.577  -4.277  -0.015  0.00  0.00    +0.047 A 
ATOM     11  C   LIG    1        8.585  -5.246   0.026  0.00  0.00    +0.026 A 
ATOM     12  C   LIG    1        9.902  -4.791  -0.049  0.00  0.00    +0.002 A 
ATOM     13  C   LIG    1       10.204  -3.437  -0.162  0.00  0.00    +0.001 A 
ATOM     14  C   LIG    1        9.195  -2.476  -0.206  0.00  0.00    +0.010 A 
ATOM     15  C   LIG    1        7.853  -2.887  -0.132  0.00  0.00    +0.003 A 
ATOM     16  C   LIG    1        6.588  -2.198  -0.149  0.00  0.00    -0.020 A 
ATOM     17  C   LIG    1        6.414  -0.698  -0.255  0.00  0.00    +0.019 C 
ATOM     18  C   LIG    1        5.450  -0.229  -1.365  0.00  0.00    -0.074 C 
ATOM     19  N   LIG    1        4.052  -0.899  -1.402  0.00  0.00    +0.383 N 
ATOM     20  H   LIG    1        3.421  -0.126  -1.555  0.00  0.00    -0.081 HD
ATOM     21  C   LIG    1        1.511  -2.218  -1.471  0.00  0.00    +0.004 C 
ENDROOT
BRANCH   3  22
ATOM     22  C   LIG    1        3.622  -3.571   1.441  0.00  0.00    +0.317 C 
ATOM     23  O   LIG    1        2.832  -4.509   1.571  0.00  0.00    -0.250 OA
BRANCH  22  24
ATOM     24  O   LIG    1        4.188  -2.891   2.470  0.00  0.00    -0.467 OA
ATOM     25  C   LIG    1        3.907  -3.247   3.816  0.00  0.00    +0.280 C 
ENDBRANCH  22  24
ENDBRANCH   3  22
BRANCH   1  26
ATOM     26  C   LIG    1        1.387  -0.027  -0.068  0.00  0.00    +0.030 C 
BRANCH  26  27
ATOM     27  C   LIG    1       -0.147   0.008   0.052  0.00  0.00    +0.159 C 
BRANCH  27  29
ATOM     28  C   LIG    1       -1.967   1.512   0.304  0.00  0.00    +0.193 C 
ATOM     29  O   LIG    1       -0.561   1.361   0.177  0.00  0.00    -0.383 OA
ENDBRANCH  27  29
ENDBRANCH  26  27
ENDBRANCH   1  26
TORSDOF 5
