REMARK  Name = DB15078
REMARK                            x       y       z     vdW  Elec       q    Type
REMARK                         _______ _______ _______ _____ _____    ______ ____
ROOT
ATOM      1  C   LIG    1       -0.713   1.270  -0.061  0.00  0.00    +0.008 A 
ATOM      2  C   LIG    1        0.115   0.143  -0.156  0.00  0.00    +0.024 A 
ATOM      3  C   LIG    1       -0.733  -0.991  -0.284  0.00  0.00    +0.114 A 
ATOM      4  C   LIG    1       -0.605  -2.392  -0.410  0.00  0.00    +0.144 A 
ATOM      5  N   LIG    1       -1.684  -3.206  -0.509  0.00  0.00    -0.217 NA
ATOM      6  C   LIG    1       -2.902  -2.618  -0.490  0.00  0.00    +0.245 A 
ATOM      7  N   LIG    1       -3.170  -1.295  -0.381  0.00  0.00    -0.155 NA
ATOM      8  N   LIG    1       -2.063  -0.525  -0.283  0.00  0.00    -0.233 N 
ATOM      9  C   LIG    1       -2.045   0.850  -0.160  0.00  0.00    +0.033 A 
ENDROOT
BRANCH   2  10
ATOM     10  C   LIG    1        1.564   0.127  -0.101  0.00  0.00    +0.023 A 
ATOM     11  S   LIG    1        2.510   0.826  -1.396  0.00  0.00    -0.085 S 
ATOM     12  C   LIG    1        4.009   0.384  -0.583  0.00  0.00    +0.062 A 
ATOM     13  C   LIG    1        5.324   0.626  -1.017  0.00  0.00    +0.135 A 
ATOM     14  C   LIG    1        6.377   0.182  -0.207  0.00  0.00    +0.050 A 
ATOM     15  C   LIG    1        6.136  -0.478   0.996  0.00  0.00    -0.046 A 
ATOM     16  C   LIG    1        4.830  -0.723   1.424  0.00  0.00    +0.012 A 
ATOM     17  C   LIG    1        7.306  -0.954   1.837  0.00  0.00    +0.044 C 
ATOM     18  C   LIG    1        3.744  -0.293   0.644  0.00  0.00    -0.006 A 
ATOM     19  C   LIG    1        2.350  -0.430   0.886  0.00  0.00    +0.025 A 
BRANCH  13  20
ATOM     20  O   LIG    1        5.453   1.290  -2.221  0.00  0.00    -0.494 OA
ATOM     21  C   LIG    1        6.760   1.566  -2.711  0.00  0.00    +0.277 C 
ENDBRANCH  13  20
ENDBRANCH   2  10
BRANCH   4  22
ATOM     22  N   LIG    1        0.646  -3.004  -0.441  0.00  0.00    -0.341 N 
ATOM     23  H   LIG    1        0.704  -4.007  -0.539  0.00  0.00    +0.144 HD
ATOM     24  H   LIG    1        1.479  -2.435  -0.385  0.00  0.00    +0.144 HD
ENDBRANCH   4  22
BRANCH   1  25
ATOM     25  C   LIG    1       -0.272   2.709   0.127  0.00  0.00    +0.197 C 
BRANCH  25  27
ATOM     26  C   LIG    1        0.027   4.360   1.810  0.00  0.00    +0.194 C 
ATOM     27  O   LIG    1       -0.376   3.034   1.507  0.00  0.00    -0.378 OA
ENDBRANCH  25  27
ENDBRANCH   1  25
BRANCH   9  28
ATOM     28  C   LIG    1       -3.329   1.667  -0.126  0.00  0.00    -0.021 C 
BRANCH  28  29
ATOM     29  N   LIG    1       -3.629   2.102   1.328  0.00  0.00    +0.390 N 
ATOM     30  H   LIG    1       -2.793   2.525   1.708  0.00  0.00    -0.081 HD
ATOM     31  C   LIG    1       -4.743   3.172   1.334  0.00  0.00    +0.019 C 
ATOM     32  C   LIG    1       -5.229   3.551   2.752  0.00  0.00    +0.196 C 
ATOM     33  O   LIG    1       -5.848   4.588   2.977  0.00  0.00    -0.278 OA
ATOM     34  N   LIG    1       -4.958   2.685   3.755  0.00  0.00    -0.319 N 
ATOM     35  H   LIG    1       -5.294   2.953   4.669  0.00  0.00    +0.149 HD
ATOM     36  C   LIG    1       -4.216   1.415   3.671  0.00  0.00    +0.085 C 
ATOM     37  C   LIG    1       -4.028   0.916   2.224  0.00  0.00    -0.059 C 
ENDBRANCH  28  29
ENDBRANCH   9  28
TORSDOF 7
