REMARK  Name = DB15795
REMARK                            x       y       z     vdW  Elec       q    Type
REMARK                         _______ _______ _______ _____ _____    ______ ____
ROOT
ATOM      1  C   LIG    1        1.670  -3.978  -2.611  0.00  0.00    +0.158 C 
ENDROOT
BRANCH   1   2
ATOM      2  C   LIG    1        1.482  -4.375  -4.083  0.00  0.00    -0.029 A 
ATOM      3  C   LIG    1        0.182  -4.508  -4.582  0.00  0.00    +0.005 A 
ATOM      4  C   LIG    1       -0.028  -4.874  -5.909  0.00  0.00    +0.000 A 
ATOM      5  C   LIG    1        1.064  -5.109  -6.740  0.00  0.00    +0.000 A 
ATOM      6  C   LIG    1        2.363  -4.982  -6.257  0.00  0.00    +0.000 A 
ATOM      7  C   LIG    1        2.573  -4.618  -4.930  0.00  0.00    +0.005 A 
ENDBRANCH   1   2
BRANCH   1   8
ATOM      8  C   LIG    1        2.559  -4.943  -1.808  0.00  0.00    -0.029 A 
ATOM      9  C   LIG    1        1.934  -5.902  -1.004  0.00  0.00    +0.005 A 
ATOM     10  C   LIG    1        2.694  -6.799  -0.257  0.00  0.00    +0.000 A 
ATOM     11  C   LIG    1        4.084  -6.738  -0.311  0.00  0.00    +0.000 A 
ATOM     12  C   LIG    1        4.721  -5.789  -1.106  0.00  0.00    +0.000 A 
ATOM     13  C   LIG    1        3.961  -4.893  -1.853  0.00  0.00    +0.005 A 
ENDBRANCH   1   8
BRANCH   1  14
ATOM     14  C   LIG    1        2.167  -2.518  -2.474  0.00  0.00    +0.319 C 
ATOM     15  O   LIG    1        2.860  -1.963  -3.333  0.00  0.00    -0.250 OA
BRANCH  14  16
ATOM     16  O   LIG    1        1.766  -1.961  -1.313  0.00  0.00    -0.463 OA
BRANCH  16  17
ATOM     17  C   LIG    1        2.125  -0.624  -0.982  0.00  0.00    +0.247 C 
BRANCH  17  18
ATOM     18  C   LIG    1        1.492  -0.220   0.366  0.00  0.00    +0.125 C 
BRANCH  18  19
ATOM     19  N   LIG    1        0.023  -0.305   0.397  0.00  0.00    -0.300 NA
BRANCH  19  20
ATOM     20  C   LIG    1       -0.456  -0.152   1.781  0.00  0.00    +0.081 C 
ATOM     21  C   LIG    1       -1.563  -1.169   2.105  0.00  0.00    +0.020 C 
ENDBRANCH  19  20
BRANCH  19  22
ATOM     22  C   LIG    1       -0.583   0.666  -0.532  0.00  0.00    +0.081 C 
ATOM     23  C   LIG    1       -2.113   0.574  -0.650  0.00  0.00    +0.020 C 
ENDBRANCH  19  22
ENDBRANCH  18  19
ENDBRANCH  17  18
ENDBRANCH  16  17
ENDBRANCH  14  16
ENDBRANCH   1  14
TORSDOF 9
