REMARK  Name = DB15003
REMARK                            x       y       z     vdW  Elec       q    Type
REMARK                         _______ _______ _______ _____ _____    ______ ____
ROOT
ATOM      1  N   LIG    1        4.148   0.906  -2.067  0.00  0.00    -0.312 N 
ATOM      2  C   LIG    1        5.370   0.324  -2.679  0.00  0.00    +0.129 C 
ATOM      3  C   LIG    1        6.021   1.176  -3.809  0.00  0.00    +0.094 C 
ATOM      4  N   LIG    1        6.241   2.486  -3.201  0.00  0.00    -0.292 N 
ATOM      5  C   LIG    1        7.414   3.058  -2.832  0.00  0.00    +0.225 C 
ATOM      6  O   LIG    1        7.455   4.213  -2.400  0.00  0.00    -0.275 OA
ATOM      7  C   LIG    1        4.932   3.126  -3.111  0.00  0.00    +0.094 C 
ATOM      8  C   LIG    1        4.335   2.807  -4.492  0.00  0.00    +0.026 C 
ATOM      9  C   LIG    1        5.047   1.528  -4.947  0.00  0.00    +0.026 C 
ATOM     10  C   LIG    1        4.220   2.386  -1.941  0.00  0.00    +0.129 C 
ENDROOT
BRANCH   1  13
ATOM     11  C   LIG    1        1.433   0.083   0.156  0.00  0.00    +0.221 A 
ATOM     12  N   LIG    1        2.291   0.804  -0.616  0.00  0.00    -0.199 NA
ATOM     13  C   LIG    1        3.312   0.148  -1.240  0.00  0.00    +0.126 A 
ATOM     14  C   LIG    1        3.444  -1.245  -1.097  0.00  0.00    +0.063 A 
ATOM     15  C   LIG    1        2.522  -1.906  -0.284  0.00  0.00    +0.118 A 
ATOM     16  N   LIG    1        1.513  -1.257   0.350  0.00  0.00    -0.223 NA
BRANCH  11  17
ATOM     17  N   LIG    1        0.379   0.727   0.824  0.00  0.00    -0.281 N 
ATOM     18  H   LIG    1       -0.149   0.101   1.414  0.00  0.00    +0.155 HD
BRANCH  17  23
ATOM     19  C   LIG    1       -1.041   5.270   2.112  0.00  0.00    +0.172 C 
ATOM     20  N   LIG    1       -0.551   4.104   1.399  0.00  0.00    -0.273 N 
ATOM     21  N   LIG    1       -0.228   4.213   0.106  0.00  0.00    -0.178 NA
ATOM     22  C   LIG    1        0.147   3.001  -0.237  0.00  0.00    +0.157 A 
ATOM     23  C   LIG    1        0.081   2.070   0.816  0.00  0.00    +0.071 A 
ATOM     24  C   LIG    1       -0.397   2.828   1.872  0.00  0.00    +0.131 A 
ENDBRANCH  17  23
ENDBRANCH  11  17
ENDBRANCH   1  13
BRANCH   5  25
ATOM     25  C   LIG    1        8.720   2.229  -2.940  0.00  0.00    +0.150 C 
ATOM     26  C   LIG    1        9.954   2.928  -3.486  0.00  0.00    +0.261 C 
ATOM     27  F   LIG    1        9.759   4.131  -4.031  0.00  0.00    -0.205 F 
ATOM     28  F   LIG    1       10.635   2.170  -4.345  0.00  0.00    -0.205 F 
ATOM     29  C   LIG    1        9.865   2.669  -2.015  0.00  0.00    +0.095 C 
ENDBRANCH   5  25
TORSDOF 4
