REMARK  Name = DB15377
REMARK                            x       y       z     vdW  Elec       q    Type
REMARK                         _______ _______ _______ _____ _____    ______ ____
ROOT
ATOM      1  C   LIG    1        1.359   0.255  -0.126  0.00  0.00    +0.125 C 
ATOM      2  C   LIG    1        1.974   0.832   1.166  0.00  0.00    +0.024 C 
ENDROOT
BRANCH   1   8
ATOM      3  C   LIG    1       -5.173   1.158   0.263  0.00  0.00    +0.121 A 
ATOM      4  C   LIG    1       -4.519   2.382   0.456  0.00  0.00    +0.046 A 
ATOM      5  C   LIG    1       -3.130   2.469   0.424  0.00  0.00    +0.012 A 
ATOM      6  C   LIG    1       -2.345   1.315   0.192  0.00  0.00    -0.017 A 
ATOM      7  C   LIG    1       -0.930   1.368   0.150  0.00  0.00    +0.013 A 
ATOM      8  C   LIG    1       -0.175   0.214  -0.088  0.00  0.00    -0.033 A 
ATOM      9  C   LIG    1       -0.827  -1.006  -0.275  0.00  0.00    +0.005 A 
ATOM     10  C   LIG    1       -2.215  -1.093  -0.239  0.00  0.00    +0.009 A 
ATOM     11  C   LIG    1       -2.999   0.063  -0.007  0.00  0.00    -0.014 A 
ATOM     12  C   LIG    1       -4.414   0.010   0.034  0.00  0.00    +0.054 A 
BRANCH   3  14
ATOM     13  C   LIG    1       -7.378   2.129   0.496  0.00  0.00    +0.277 C 
ATOM     14  O   LIG    1       -6.545   0.995   0.281  0.00  0.00    -0.495 OA
ENDBRANCH   3  14
ENDBRANCH   1   8
BRANCH   1  15
ATOM     15  C   LIG    1        1.881   0.991  -1.379  0.00  0.00    +0.320 C 
ATOM     16  O   LIG    1        1.269   1.927  -1.904  0.00  0.00    -0.250 OA
BRANCH  15  17
ATOM     17  O   LIG    1        3.073   0.480  -1.798  0.00  0.00    -0.425 OA
BRANCH  17  18
ATOM     18  C   LIG    1        3.684   1.014  -2.909  0.00  0.00    +0.132 A 
ATOM     19  C   LIG    1        3.359   0.546  -4.182  0.00  0.00    +0.047 A 
ATOM     20  C   LIG    1        3.994   1.077  -5.302  0.00  0.00    +0.014 A 
ATOM     21  C   LIG    1        4.970   2.079  -5.168  0.00  0.00    +0.003 A 
ATOM     22  C   LIG    1        5.299   2.524  -3.876  0.00  0.00    +0.014 A 
ATOM     23  C   LIG    1        4.664   1.994  -2.756  0.00  0.00    +0.047 A 
BRANCH  21  24
ATOM     24  C   LIG    1        5.646   2.634  -6.374  0.00  0.00    +0.077 C 
ATOM     25  S   LIG    1        7.271   2.999  -6.441  0.00  0.00    -0.035 S 
BRANCH  24  26
ATOM     26  N   LIG    1        4.830   2.820  -7.439  0.00  0.00    -0.352 N 
ATOM     27  H   LIG    1        5.206   3.191  -8.299  0.00  0.00    +0.143 HD
ATOM     28  H   LIG    1        3.849   2.591  -7.366  0.00  0.00    +0.143 HD
ENDBRANCH  24  26
ENDBRANCH  21  24
ENDBRANCH  17  18
ENDBRANCH  15  17
ENDBRANCH   1  15
TORSDOF 7
