REMARK  Name = DB15391
REMARK                            x       y       z     vdW  Elec       q    Type
REMARK                         _______ _______ _______ _____ _____    ______ ____
ROOT
ATOM      1  C   LIG    1        1.336   0.101   0.225  0.00  0.00    +0.019 A 
ATOM      2  C   LIG    1        2.051  -1.081   0.500  0.00  0.00    +0.129 A 
ATOM      3  F   LIG    1        1.418  -2.273   0.600  0.00  0.00    -0.205 F 
ATOM      4  C   LIG    1        3.434  -1.063   0.665  0.00  0.00    +0.040 A 
ATOM      5  C   LIG    1        4.142   0.127   0.539  0.00  0.00    +0.026 A 
ATOM      6  C   LIG    1        3.477   1.312   0.227  0.00  0.00    +0.034 A 
ATOM      7  C   LIG    1        2.080   1.291   0.080  0.00  0.00    +0.032 A 
ENDROOT
BRANCH   1  15
ATOM      8  C   LIG    1       -1.695  -3.018  -1.650  0.00  0.00    +0.038 C 
ATOM      9  C   LIG    1       -1.690  -1.696  -0.869  0.00  0.00    +0.122 C 
ATOM     10  C   LIG    1       -0.596  -0.694  -1.277  0.00  0.00    +0.062 C 
ATOM     11  C   LIG    1       -0.957   0.152  -2.519  0.00  0.00    +0.086 C 
ATOM     12  S   LIG    1       -2.226   1.372  -2.130  0.00  0.00    -0.091 S 
ATOM     13  C   LIG    1       -1.412   2.043  -0.696  0.00  0.00    +0.148 C 
ATOM     14  N   LIG    1       -0.740   1.439   0.198  0.00  0.00    -0.249 NA
ATOM     15  C   LIG    1       -0.217   0.061   0.044  0.00  0.00    +0.121 C 
ATOM     16  C   LIG    1       -0.930  -0.806   1.120  0.00  0.00    +0.195 C 
ATOM     17  O   LIG    1       -1.376  -1.995   0.481  0.00  0.00    -0.374 OA
BRANCH  13  18
ATOM     18  N   LIG    1       -1.880   3.305  -0.422  0.00  0.00    -0.338 N 
ATOM     19  H   LIG    1       -2.278   3.874  -1.154  0.00  0.00    +0.144 HD
ATOM     20  H   LIG    1       -1.743   3.710   0.492  0.00  0.00    +0.144 HD
ENDBRANCH  13  18
ENDBRANCH   1  15
BRANCH   6  21
ATOM     21  N   LIG    1        4.277   2.464   0.113  0.00  0.00    -0.280 N 
ATOM     22  H   LIG    1        5.206   2.369   0.497  0.00  0.00    +0.155 HD
ATOM     23  C   LIG    1        3.999   3.650  -0.480  0.00  0.00    +0.268 C 
ATOM     24  O   LIG    1        2.952   3.898  -1.081  0.00  0.00    -0.268 OA
BRANCH  23  25
ATOM     25  C   LIG    1        5.083   4.706  -0.391  0.00  0.00    +0.144 A 
ATOM     26  C   LIG    1        4.908   5.971  -0.977  0.00  0.00    +0.144 A 
ATOM     27  N   LIG    1        5.863   6.935  -0.909  0.00  0.00    -0.250 NA
ATOM     28  C   LIG    1        7.011   6.631  -0.246  0.00  0.00    +0.124 A 
ATOM     29  C   LIG    1        7.200   5.376   0.341  0.00  0.00    +0.140 A 
ATOM     30  N   LIG    1        6.243   4.414   0.271  0.00  0.00    -0.247 NA
BRANCH  28  31
ATOM     31  C   LIG    1        8.072   7.717  -0.173  0.00  0.00    +0.391 C 
ATOM     32  F   LIG    1        8.485   8.064  -1.393  0.00  0.00    -0.202 F 
ATOM     33  F   LIG    1        7.609   8.793   0.464  0.00  0.00    -0.202 F 
ENDBRANCH  28  31
ENDBRANCH  23  25
ENDBRANCH   6  21
TORSDOF 5
