REMARK  Name = DB15123
REMARK                            x       y       z     vdW  Elec       q    Type
REMARK                         _______ _______ _______ _____ _____    ______ ____
ROOT
ATOM      1  C   LIG    1        0.433  -0.341  -0.250  0.00  0.00    +0.163 C 
ENDROOT
BRANCH   1   2
ATOM      2  N   LIG    1       -0.066  -0.971  -1.490  0.00  0.00    -0.279 N 
ATOM      3  C   LIG    1       -0.664  -0.252  -2.476  0.00  0.00    +0.244 C 
ATOM      4  O   LIG    1       -0.885   0.959  -2.471  0.00  0.00    -0.270 OA
ATOM      5  C   LIG    1       -0.987  -1.178  -3.541  0.00  0.00    +0.110 C 
ATOM      6  C   LIG    1       -0.587  -2.398  -3.174  0.00  0.00    +0.128 C 
ATOM      7  C   LIG    1        0.051  -2.375  -1.829  0.00  0.00    +0.183 C 
BRANCH   6   8
ATOM      8  O   LIG    1       -0.668  -3.545  -3.892  0.00  0.00    -0.457 OA
BRANCH   8   9
ATOM      9  C   LIG    1       -1.135  -4.666  -3.249  0.00  0.00    +0.146 A 
ATOM     10  C   LIG    1       -2.507  -4.819  -3.020  0.00  0.00    +0.048 A 
ATOM     11  C   LIG    1       -2.988  -5.955  -2.370  0.00  0.00    +0.004 A 
ATOM     12  C   LIG    1       -2.102  -6.948  -1.951  0.00  0.00    +0.002 A 
ATOM     13  C   LIG    1       -0.734  -6.804  -2.184  0.00  0.00    +0.024 A 
ATOM     14  C   LIG    1       -0.248  -5.668  -2.833  0.00  0.00    +0.083 A 
ATOM     15 CL   LIG    1        1.450  -5.510  -3.112  0.00  0.00    -0.080 Cl
ENDBRANCH   8   9
ENDBRANCH   6   8
ENDBRANCH   1   2
BRANCH   1  16
ATOM     16  C   LIG    1        1.911   0.077  -0.402  0.00  0.00    +0.239 C 
ATOM     17  N   LIG    1        2.160   1.385  -0.170  0.00  0.00    -0.267 N 
ATOM     18  H   LIG    1        1.370   1.981   0.028  0.00  0.00    +0.156 HD
ATOM     19  O   LIG    1        2.750  -0.778  -0.696  0.00  0.00    -0.273 OA
BRANCH  17  20
ATOM     20  C   LIG    1        3.393   2.017  -0.251  0.00  0.00    +0.147 A 
ATOM     21  C   LIG    1        3.550   3.410  -0.280  0.00  0.00    +0.065 A 
ATOM     22  C   LIG    1        4.910   3.636  -0.367  0.00  0.00    +0.110 A 
ATOM     23  N   LIG    1        5.480   2.390  -0.382  0.00  0.00    -0.267 N 
ATOM     24  N   LIG    1        4.567   1.412  -0.297  0.00  0.00    -0.156 NA
BRANCH  23  25
ATOM     25  C   LIG    1        6.903   2.060  -0.453  0.00  0.00    +0.177 C 
BRANCH  25  26
ATOM     26  C   LIG    1        7.246   1.104  -1.624  0.00  0.00    +0.161 C 
BRANCH  26  27
ATOM     27  O   LIG    1        6.880   1.710  -2.853  0.00  0.00    -0.388 OA
ATOM     28  H   LIG    1        5.933   1.871  -2.842  0.00  0.00    +0.210 HD
ENDBRANCH  26  27
BRANCH  26  29
ATOM     29  C   LIG    1        8.749   0.753  -1.658  0.00  0.00    +0.189 C 
BRANCH  29  30
ATOM     30  O   LIG    1        9.010  -0.309  -2.556  0.00  0.00    -0.392 OA
ATOM     31  H   LIG    1        9.953  -0.492  -2.547  0.00  0.00    +0.210 HD
ENDBRANCH  29  30
ENDBRANCH  26  29
ENDBRANCH  25  26
ENDBRANCH  23  25
ENDBRANCH  17  20
ENDBRANCH   1  16
BRANCH   1  32
ATOM     32  C   LIG    1        0.215  -1.284   0.966  0.00  0.00    +0.035 C 
BRANCH  32  34
ATOM     33  C   LIG    1        0.447  -1.752   3.458  0.00  0.00    +0.007 C 
ATOM     34  C   LIG    1        0.593  -0.692   2.345  0.00  0.00    -0.015 C 
ATOM     35  C   LIG    1       -0.186   0.602   2.665  0.00  0.00    +0.007 C 
ENDBRANCH  32  34
ENDBRANCH   1  32
TORSDOF 12
