REMARK  Name = DB15333
REMARK                            x       y       z     vdW  Elec       q    Type
REMARK                         _______ _______ _______ _____ _____    ______ ____
ROOT
ATOM      1  N   LIG    1        1.525   0.034   0.077  0.00  0.00    -0.307 N 
ATOM      2  H   LIG    1        1.958  -0.011  -0.833  0.00  0.00    +0.149 HD
ATOM      3  C   LIG    1        2.314   0.221   1.150  0.00  0.00    +0.233 C 
ATOM      4  O   LIG    1        1.887   0.274   2.305  0.00  0.00    -0.274 OA
ENDROOT
BRANCH   1   6
ATOM      5  C   LIG    1       -0.697   1.141   0.396  0.00  0.00    +0.033 C 
ATOM      6  C   LIG    1        0.070  -0.163   0.101  0.00  0.00    +0.100 C 
BRANCH   6   7
ATOM      7  C   LIG    1       -0.442  -0.831  -1.177  0.00  0.00    -0.027 A 
ATOM      8  C   LIG    1       -1.356  -1.883  -1.093  0.00  0.00    +0.006 A 
ATOM      9  C   LIG    1       -1.812  -2.509  -2.250  0.00  0.00    +0.004 A 
ATOM     10  C   LIG    1       -1.367  -2.099  -3.515  0.00  0.00    -0.042 A 
ATOM     11  C   LIG    1       -0.452  -1.038  -3.589  0.00  0.00    +0.004 A 
ATOM     12  C   LIG    1        0.006  -0.412  -2.433  0.00  0.00    +0.006 A 
BRANCH  10  13
ATOM     13  C   LIG    1       -1.892  -2.829  -4.779  0.00  0.00    -0.013 C 
ATOM     14  C   LIG    1       -3.435  -2.707  -4.852  0.00  0.00    +0.015 C 
ATOM     15  C   LIG    1       -1.318  -2.256  -6.103  0.00  0.00    +0.015 C 
ATOM     16  C   LIG    1       -1.503  -4.326  -4.714  0.00  0.00    +0.015 C 
ENDBRANCH  10  13
ENDBRANCH   6   7
ENDBRANCH   1   6
BRANCH   3  17
ATOM     17  C   LIG    1        3.811   0.409   0.852  0.00  0.00    +0.219 C 
BRANCH  17  18
ATOM     18  N   LIG    1        4.697   0.159   1.988  0.00  0.00    -0.319 N 
ATOM     19  C   LIG    1        5.001  -1.057   2.577  0.00  0.00    +0.108 A 
ATOM     20  C   LIG    1        4.622  -2.383   2.328  0.00  0.00    +0.184 A 
ATOM     21  C   LIG    1        5.155  -3.365   3.168  0.00  0.00    +0.161 A 
ATOM     22  C   LIG    1        6.026  -3.044   4.210  0.00  0.00    +0.043 A 
ATOM     23  C   LIG    1        6.407  -1.725   4.460  0.00  0.00    +0.033 A 
ATOM     24  F   LIG    1        4.821  -4.660   2.968  0.00  0.00    -0.202 F 
ATOM     25  F   LIG    1        3.780  -2.711   1.320  0.00  0.00    -0.200 F 
ATOM     26  C   LIG    1        5.889  -0.718   3.633  0.00  0.00    +0.092 A 
ATOM     27  N   LIG    1        6.115   0.632   3.680  0.00  0.00    -0.236 NA
ATOM     28  C   LIG    1        5.397   1.111   2.698  0.00  0.00    +0.200 A 
ENDBRANCH  17  18
ENDBRANCH   3  17
TORSDOF 5
