REMARK  Name = DB15023
REMARK                            x       y       z     vdW  Elec       q    Type
REMARK                         _______ _______ _______ _____ _____    ______ ____
ROOT
ATOM      1  C   LIG    1        1.857   0.141  -0.063  0.00  0.00    +0.075 A 
ATOM      2  C   LIG    1        2.459  -0.893   0.670  0.00  0.00    +0.029 A 
ATOM      3  C   LIG    1        3.852  -0.956   0.744  0.00  0.00    +0.011 A 
ATOM      4  C   LIG    1        4.640  -0.005   0.086  0.00  0.00    +0.023 A 
ATOM      5  C   LIG    1        6.182   0.007   0.097  0.00  0.00    +0.072 C 
ATOM      6  C   LIG    1        6.656   1.473   0.014  0.00  0.00    +0.003 A 
ATOM      7  C   LIG    1        5.838   2.416  -0.637  0.00  0.00    +0.134 A 
ATOM      8  O   LIG    1        4.639   2.039  -1.204  0.00  0.00    -0.437 OA
ATOM      9  C   LIG    1        6.190   3.764  -0.708  0.00  0.00    +0.046 A 
ATOM     10  C   LIG    1        7.377   4.194  -0.119  0.00  0.00    +0.004 A 
ATOM     11  C   LIG    1        8.195   3.282   0.547  0.00  0.00    +0.001 A 
ATOM     12  C   LIG    1        7.830   1.937   0.620  0.00  0.00    +0.008 A 
ATOM     13  C   LIG    1        3.952   1.018  -0.587  0.00  0.00    +0.225 A 
ATOM     14  N   LIG    1        2.603   1.098  -0.683  0.00  0.00    -0.212 NA
ENDROOT
BRANCH   1  19
ATOM     15  C   LIG    1       -2.440   0.497  -0.398  0.00  0.00    +0.072 A 
ATOM     16  C   LIG    1       -1.634   1.644  -0.390  0.00  0.00    +0.136 A 
ATOM     17  F   LIG    1       -2.181   2.881  -0.471  0.00  0.00    -0.205 F 
ATOM     18  C   LIG    1       -0.248   1.524  -0.286  0.00  0.00    +0.049 A 
ATOM     19  C   LIG    1        0.372   0.269  -0.185  0.00  0.00    +0.003 A 
ATOM     20  C   LIG    1       -0.446  -0.869  -0.199  0.00  0.00    +0.011 A 
ATOM     21  C   LIG    1       -1.832  -0.760  -0.305  0.00  0.00    +0.016 A 
BRANCH  15  23
ATOM     22  N   LIG    1       -4.697   0.188   0.554  0.00  0.00    -0.301 N 
ATOM     23  C   LIG    1       -3.940   0.611  -0.497  0.00  0.00    +0.249 C 
ATOM     24  O   LIG    1       -4.422   1.074  -1.533  0.00  0.00    -0.270 OA
ATOM     25  C   LIG    1       -6.162   0.226   0.497  0.00  0.00    +0.132 C 
BRANCH  22  27
ATOM     26  C   LIG    1       -3.874   1.103   2.746  0.00  0.00    +0.024 C 
ATOM     27  C   LIG    1       -4.170  -0.139   1.889  0.00  0.00    +0.104 C 
ENDBRANCH  22  27
ENDBRANCH  15  23
ENDBRANCH   1  19
BRANCH   5  28
ATOM     28  C   LIG    1        6.842  -0.954  -0.980  0.00  0.00    +0.053 C 
ATOM     29  C   LIG    1        6.400  -2.429  -0.728  0.00  0.00    +0.021 C 
ATOM     30  C   LIG    1        8.391  -0.957  -0.814  0.00  0.00    +0.021 C 
BRANCH  28  31
ATOM     31  C   LIG    1        6.478  -0.495  -2.433  0.00  0.00    +0.225 C 
ATOM     32  N   LIG    1        5.356  -1.019  -2.983  0.00  0.00    -0.263 N 
ATOM     33  H   LIG    1        4.855  -1.704  -2.436  0.00  0.00    +0.157 HD
ATOM     34  O   LIG    1        7.176   0.356  -2.993  0.00  0.00    -0.275 OA
BRANCH  32  35
ATOM     35  C   LIG    1        4.787  -0.716  -4.213  0.00  0.00    +0.187 A 
ATOM     36  S   LIG    1        5.382   0.495  -5.324  0.00  0.00    -0.039 S 
ATOM     37  C   LIG    1        4.045   0.082  -6.360  0.00  0.00    +0.183 A 
ATOM     38  N   LIG    1        3.273  -0.862  -5.878  0.00  0.00    -0.148 NA
ATOM     39  N   LIG    1        3.703  -1.321  -4.635  0.00  0.00    -0.126 NA
ENDBRANCH  32  35
ENDBRANCH  28  31
ENDBRANCH   5  28
TORSDOF 6
