REMARK  Name = DB15145
REMARK                            x       y       z     vdW  Elec       q    Type
REMARK                         _______ _______ _______ _____ _____    ______ ____
ROOT
ATOM      1  C   LIG    1       -0.623  -4.746  -0.210  0.00  0.00    +0.012 C 
ATOM      2  C   LIG    1       -1.132  -3.378   0.211  0.00  0.00    -0.019 C 
ATOM      3  C   LIG    1       -2.319  -3.277   0.939  0.00  0.00    +0.005 C 
ATOM      4  C   LIG    1       -2.815  -2.036   1.332  0.00  0.00    +0.021 C 
ATOM      5  C   LIG    1       -2.103  -0.871   0.981  0.00  0.00    +0.054 C 
ATOM      6  N   LIG    1       -2.551   0.376   1.347  0.00  0.00    -0.274 NA
ATOM      7  H   LIG    1       -3.404   0.447   1.882  0.00  0.00    +0.126 HD
ATOM      8  C   LIG    1       -1.905   1.518   1.029  0.00  0.00    +0.177 C 
ATOM      9  N   LIG    1       -0.743   1.498   0.322  0.00  0.00    -0.261 NA
ATOM     10  H   LIG    1       -0.895   2.052  -0.520  0.00  0.00    +0.127 HD
ATOM     11  C   LIG    1       -0.238   0.296  -0.075  0.00  0.00    +0.114 C 
ATOM     12  C   LIG    1       -0.889  -0.939   0.233  0.00  0.00    +0.040 C 
ATOM     13  C   LIG    1       -0.420  -2.229  -0.146  0.00  0.00    +0.012 C 
ENDROOT
BRANCH   8  14
ATOM     14  N   LIG    1       -2.405   2.809   1.468  0.00  0.00    -0.263 NA
ATOM     15  C   LIG    1       -1.835   4.059   0.896  0.00  0.00    +0.124 C 
ATOM     16  C   LIG    1       -2.180   4.258  -0.585  0.00  0.00    -0.008 A 
ATOM     17  C   LIG    1       -1.175   4.191  -1.557  0.00  0.00    +0.007 A 
ATOM     18  C   LIG    1       -1.477   4.255  -2.915  0.00  0.00    +0.000 A 
ATOM     19  C   LIG    1       -2.801   4.388  -3.325  0.00  0.00    +0.002 A 
ATOM     20  C   LIG    1       -3.816   4.479  -2.376  0.00  0.00    +0.027 A 
ATOM     21  C   LIG    1       -3.515   4.437  -1.010  0.00  0.00    +0.093 A 
ATOM     22  S   LIG    1       -4.854   4.679   0.169  0.00  0.00    -0.002 S 
ATOM     23  O   LIG    1       -4.427   5.710   1.123  0.00  0.00    -0.169 OA
ATOM     24  O   LIG    1       -6.105   4.833  -0.581  0.00  0.00    -0.169 OA
ATOM     25  C   LIG    1       -4.913   3.023   1.082  0.00  0.00    +0.187 C 
ATOM     26  C   LIG    1       -3.752   2.864   2.087  0.00  0.00    +0.111 C 
ENDBRANCH   8  14
BRANCH  11  27
ATOM     27  N   LIG    1        0.966   0.293  -0.806  0.00  0.00    -0.297 NA
ATOM     28  H   LIG    1        1.359  -0.591  -1.095  0.00  0.00    +0.124 HD
BRANCH  27  29
ATOM     29  C   LIG    1        1.680   1.523  -1.151  0.00  0.00    +0.074 C 
BRANCH  29  30
ATOM     30  C   LIG    1        2.996   1.309  -1.941  0.00  0.00    -0.011 C 
ATOM     31  C   LIG    1        4.128   0.650  -1.130  0.00  0.00    +0.150 C 
ATOM     32  O   LIG    1        5.011   1.829  -1.356  0.00  0.00    -0.382 OA
ATOM     33  C   LIG    1        3.890   2.560  -2.013  0.00  0.00    +0.150 C 
BRANCH  30  34
ATOM     34  N   LIG    1        2.735   0.653  -3.310  0.00  0.00    +0.386 N 
ATOM     35  H   LIG    1        2.290  -0.245  -3.189  0.00  0.00    -0.089 HD
ATOM     36  H   LIG    1        2.134   1.241  -3.870  0.00  0.00    -0.089 HD
ATOM     37  H   LIG    1        3.607   0.520  -3.802  0.00  0.00    -0.089 HD
ENDBRANCH  30  34
ENDBRANCH  29  30
ENDBRANCH  27  29
ENDBRANCH  11  27
TORSDOF 5
