REMARK  Name = DB15793
REMARK                            x       y       z     vdW  Elec       q    Type
REMARK                         _______ _______ _______ _____ _____    ______ ____
ROOT
ATOM      1  C   LIG    1        1.787   0.007   0.011  0.00  0.00    +0.117 A 
ATOM      2  C   LIG    1        2.485   1.051  -0.604  0.00  0.00    +0.033 A 
ATOM      3  C   LIG    1        3.877   1.049  -0.607  0.00  0.00    +0.047 A 
ATOM      4  C   LIG    1        4.569   0.001  -0.002  0.00  0.00    +0.117 A 
ATOM      5  C   LIG    1        3.878  -1.048   0.603  0.00  0.00    +0.047 A 
ATOM      6  C   LIG    1        2.485  -1.047   0.608  0.00  0.00    +0.033 A 
ENDROOT
BRANCH   1   7
ATOM      7  S   LIG    1       -0.009   0.004   0.005  0.00  0.00    +0.110 S 
ATOM      8  O   LIG    1       -0.355  -0.713   1.238  0.00  0.00    -0.142 OA
ATOM      9  O   LIG    1       -0.309  -0.714  -1.239  0.00  0.00    -0.142 OA
BRANCH   7  10
ATOM     10  O   LIG    1       -0.355   1.430   0.001  0.00  0.00    -0.250 OA
ATOM     11  H   LIG    1       -0.093   1.824  -0.846  0.00  0.00    +0.245 HD
ENDBRANCH   7  10
ENDBRANCH   1   7
BRANCH   4  12
ATOM     12  O   LIG    1        5.938   0.001  -0.004  0.00  0.00    -0.507 OA
ATOM     13  H   LIG    1        6.307   0.769  -0.444  0.00  0.00    +0.292 HD
ENDBRANCH   4  12
TORSDOF 3
