REMARK  Name = DB15257
REMARK                            x       y       z     vdW  Elec       q    Type
REMARK                         _______ _______ _______ _____ _____    ______ ____
ROOT
ATOM      1  C   LIG    1       -0.027   6.123   1.808  0.00  0.00    +0.011 C 
ATOM      2  C   LIG    1       -0.623   4.726   2.094  0.00  0.00    -0.035 C 
ATOM      3  C   LIG    1        0.534   3.698   2.032  0.00  0.00    +0.005 C 
ATOM      4  C   LIG    1        0.049   2.249   2.268  0.00  0.00    -0.011 C 
ATOM      5  C   LIG    1       -1.116   1.780   1.312  0.00  0.00    -0.048 C 
ATOM      6  C   LIG    1       -1.736   0.364   1.685  0.00  0.00    +0.070 C 
ATOM      7  C   LIG    1       -2.185   0.162   3.120  0.00  0.00    -0.012 A 
ATOM      8  C   LIG    1       -1.476   0.130   4.326  0.00  0.00    +0.008 A 
ATOM      9  C   LIG    1       -2.153  -0.083   5.529  0.00  0.00    +0.020 A 
ATOM     10  C   LIG    1       -3.536  -0.278   5.532  0.00  0.00    +0.043 A 
ATOM     11 CL   LIG    1       -4.367  -0.542   7.021  0.00  0.00    -0.083 Cl
ATOM     12  C   LIG    1       -4.245  -0.274   4.329  0.00  0.00    +0.043 A 
ATOM     13  C   LIG    1       -3.551  -0.063   3.138  0.00  0.00    +0.039 A 
ATOM     14  N   LIG    1       -4.036  -0.077   1.847  0.00  0.00    -0.284 N 
ATOM     15  H   LIG    1       -5.002  -0.252   1.612  0.00  0.00    +0.155 HD
ATOM     16  C   LIG    1       -3.080   0.111   0.922  0.00  0.00    +0.227 C 
ATOM     17  O   LIG    1       -3.241   0.117  -0.298  0.00  0.00    -0.275 OA
ATOM     18  C   LIG    1       -0.625  -0.613   1.186  0.00  0.00    +0.035 C 
ATOM     19  C   LIG    1       -0.022   0.021  -0.104  0.00  0.00    +0.026 C 
ATOM     20  N   LIG    1       -0.436   1.507  -0.049  0.00  0.00    +0.392 N 
ATOM     21  H   LIG    1        0.352   2.124  -0.189  0.00  0.00    -0.084 HD
ATOM     22  H   LIG    1       -1.102   1.691  -0.787  0.00  0.00    -0.084 HD
ATOM     23  C   LIG    1       -2.158   2.934   1.054  0.00  0.00    -0.011 C 
ATOM     24  C   LIG    1       -1.550   4.350   0.914  0.00  0.00    +0.005 C 
ATOM     25  C   LIG    1       -1.368   4.705   3.454  0.00  0.00    +0.011 C 
ENDROOT
BRANCH  18  26
ATOM     26  C   LIG    1       -0.948  -2.122   1.128  0.00  0.00    -0.005 A 
ATOM     27  C   LIG    1       -1.539  -2.692  -0.009  0.00  0.00    +0.026 A 
ATOM     28  C   LIG    1       -1.823  -4.057  -0.015  0.00  0.00    +0.113 A 
ATOM     29  N   LIG    1       -1.553  -4.870   1.034  0.00  0.00    -0.241 NA
ATOM     30  C   LIG    1       -0.979  -4.323   2.135  0.00  0.00    +0.165 A 
ATOM     31 CL   LIG    1       -0.638  -5.366   3.469  0.00  0.00    -0.059 Cl
ATOM     32  C   LIG    1       -0.662  -2.962   2.219  0.00  0.00    +0.163 A 
ATOM     33  F   LIG    1       -0.088  -2.473   3.344  0.00  0.00    -0.202 F 
ENDBRANCH  18  26
BRANCH  19  34
ATOM     34  C   LIG    1        1.522  -0.072  -0.227  0.00  0.00    +0.200 C 
ATOM     35  N   LIG    1        2.124   0.723  -1.136  0.00  0.00    -0.312 N 
ATOM     36  H   LIG    1        1.531   1.229  -1.778  0.00  0.00    +0.149 HD
ATOM     37  O   LIG    1        2.151  -0.872   0.468  0.00  0.00    -0.278 OA
BRANCH  35  38
ATOM     38  C   LIG    1        3.553   0.736  -1.463  0.00  0.00    +0.099 C 
ATOM     39  C   LIG    1        4.094  -0.574  -2.100  0.00  0.00    +0.183 C 
ATOM     40  O   LIG    1        5.465  -0.460  -2.473  0.00  0.00    -0.366 OA
ATOM     41  C   LIG    1        5.722   0.565  -3.433  0.00  0.00    +0.203 C 
ATOM     42  C   LIG    1        5.405   1.933  -2.787  0.00  0.00    +0.043 C 
ATOM     43  C   LIG    1        3.947   1.976  -2.299  0.00  0.00    +0.027 C 
BRANCH  41  44
ATOM     44  C   LIG    1        7.205   0.461  -3.863  0.00  0.00    +0.239 C 
ATOM     45  O   LIG    1        7.795   1.439  -4.321  0.00  0.00    -0.273 OA
ATOM     46  N   LIG    1        7.821  -0.721  -3.755  0.00  0.00    -0.327 N 
ATOM     47  H   LIG    1        8.786  -0.818  -4.038  0.00  0.00    +0.145 HD
ATOM     48  H   LIG    1        7.330  -1.518  -3.378  0.00  0.00    +0.145 HD
ENDBRANCH  41  44
ENDBRANCH  35  38
ENDBRANCH  19  34
TORSDOF 4
