REMARK  Name = DB15309
REMARK                            x       y       z     vdW  Elec       q    Type
REMARK                         _______ _______ _______ _____ _____    ______ ____
ROOT
ATOM      1  S   LIG    1        1.572  -0.092   0.000  0.00  0.00    +0.108 S 
ENDROOT
BRANCH   1   2
ATOM      2  O   LIG    1       -0.126   0.032   0.000  0.00  0.00    -0.317 OA
ATOM      3  H   LIG    1       -0.326   0.971   0.000  0.00  0.00    +0.228 HD
ENDBRANCH   1   2
BRANCH   1   4
ATOM      4  C   LIG    1        1.779  -1.781   0.000  0.00  0.00    +0.162 C 
ATOM      5  N   LIG    1        1.861  -2.935   0.000  0.00  0.00    -0.182 NA
ENDBRANCH   1   4
TORSDOF 2
