REMARK  Name = DB15601
REMARK                            x       y       z     vdW  Elec       q    Type
REMARK                         _______ _______ _______ _____ _____    ______ ____
ROOT
ATOM      1  C   LIG    1       -0.047   0.012  -0.028  0.00  0.00    +0.117 C 
ATOM      2  C   LIG    1       -0.587  -0.551   1.319  0.00  0.00    +0.037 C 
ATOM      3  C   LIG    1       -1.471   0.536   1.913  0.00  0.00    +0.022 C 
ATOM      4  C   LIG    1       -0.916   1.845   1.366  0.00  0.00    +0.109 C 
ATOM      5  N   LIG    1       -0.480   1.441   0.029  0.00  0.00    -0.286 N 
ATOM      6  C   LIG    1       -0.685   2.200  -1.083  0.00  0.00    +0.234 C 
ATOM      7  O   LIG    1       -1.087   3.363  -1.061  0.00  0.00    -0.274 OA
ATOM      8  C   LIG    1       -0.393   1.444  -2.398  0.00  0.00    +0.200 C 
ATOM      9  N   LIG    1       -0.744   0.016  -2.368  0.00  0.00    -0.305 N 
ATOM     10  H   LIG    1       -0.977  -0.443  -3.237  0.00  0.00    +0.149 HD
ATOM     11  C   LIG    1       -0.602  -0.759  -1.273  0.00  0.00    +0.237 C 
ATOM     12  O   LIG    1       -0.750  -1.979  -1.333  0.00  0.00    -0.273 OA
ENDROOT
BRANCH   1  13
ATOM     13  C   LIG    1        1.520  -0.026  -0.068  0.00  0.00    +0.062 C 
BRANCH  13  14
ATOM     14  C   LIG    1        2.166  -1.404  -0.001  0.00  0.00    -0.032 C 
ATOM     15  C   LIG    1        2.925  -1.942  -0.968  0.00  0.00    +0.004 C 
ENDBRANCH  13  14
ENDBRANCH   1  13
TORSDOF 2
