REMARK  Name = DB15193
REMARK                            x       y       z     vdW  Elec       q    Type
REMARK                         _______ _______ _______ _____ _____    ______ ____
ROOT
ATOM      1  C   LIG    1       -0.392   0.821   2.397  0.00  0.00    +0.016 C 
ATOM      2  C   LIG    1       -0.603  -0.263   1.303  0.00  0.00    -0.011 C 
ATOM      3  C   LIG    1       -0.039  -1.705   1.521  0.00  0.00    -0.002 C 
ATOM      4  C   LIG    1       -0.426  -2.373   2.859  0.00  0.00    +0.004 C 
ATOM      5  C   LIG    1        0.291  -3.718   3.079  0.00  0.00    +0.005 C 
ATOM      6  C   LIG    1        0.212  -4.698   1.863  0.00  0.00    +0.002 C 
ATOM      7  C   LIG    1        0.590  -3.980   0.494  0.00  0.00    -0.023 C 
ATOM      8  C   LIG    1        2.120  -3.609   0.490  0.00  0.00    +0.012 C 
ATOM      9  C   LIG    1        0.323  -5.003  -0.660  0.00  0.00    +0.008 C 
ATOM     10  C   LIG    1        0.965  -6.383  -0.446  0.00  0.00    +0.005 C 
ATOM     11  C   LIG    1        0.497  -7.051   0.878  0.00  0.00    +0.006 C 
ATOM     12  C   LIG    1        0.877  -8.592   0.994  0.00  0.00    -0.006 C 
ATOM     13  C   LIG    1       -0.134  -9.393   0.127  0.00  0.00    +0.016 C 
ATOM     14  C   LIG    1        2.337  -8.880   0.544  0.00  0.00    +0.016 C 
ATOM     15  C   LIG    1        0.713  -9.079   2.458  0.00  0.00    -0.038 C 
ATOM     16  C   LIG    1        0.368  -8.261   3.475  0.00  0.00    -0.022 C 
ATOM     17  C   LIG    1        0.146  -6.764   3.369  0.00  0.00    +0.034 C 
ATOM     18  C   LIG    1        0.841  -6.139   2.119  0.00  0.00    -0.022 C 
ATOM     19  C   LIG    1        2.376  -6.100   2.389  0.00  0.00    +0.012 C 
ATOM     20  C   LIG    1       -0.329  -2.668   0.296  0.00  0.00    -0.023 C 
ATOM     21  C   LIG    1       -1.867  -2.991   0.243  0.00  0.00    +0.012 C 
ATOM     22  C   LIG    1       -0.056  -1.948  -1.084  0.00  0.00    +0.006 C 
ATOM     23  C   LIG    1       -0.506  -0.466  -1.179  0.00  0.00    -0.012 C 
ATOM     24  C   LIG    1       -0.015   0.386   0.022  0.00  0.00    -0.065 C 
ATOM     25  C   LIG    1       -0.647   1.785   0.138  0.00  0.00    -0.012 C 
ATOM     26  C   LIG    1       -0.536   2.159   1.629  0.00  0.00    +0.007 C 
ENDROOT
BRANCH  15  27
ATOM     27  C   LIG    1        0.887 -10.509   2.798  0.00  0.00    -0.022 A 
ATOM     28  C   LIG    1       -0.211 -11.370   2.800  0.00  0.00    +0.009 A 
ATOM     29  C   LIG    1       -0.045 -12.720   3.094  0.00  0.00    +0.015 A 
ATOM     30  C   LIG    1        1.225 -13.252   3.390  0.00  0.00    +0.059 A 
ATOM     31  C   LIG    1        2.321 -12.368   3.378  0.00  0.00    +0.015 A 
ATOM     32  C   LIG    1        2.154 -11.017   3.084  0.00  0.00    +0.009 A 
BRANCH  30  33
ATOM     33  C   LIG    1        1.406 -14.723   3.708  0.00  0.00    +0.337 C 
ATOM     34  O   LIG    1        0.397 -15.469   3.716  0.00  0.00    -0.245 OA
BRANCH  33  35
ATOM     35  O   LIG    1        2.559 -15.152   3.953  0.00  0.00    -0.477 OA
ATOM     36  H   LIG    1        2.689 -16.059   4.151  0.00  0.00    +0.295 HD
ENDBRANCH  33  35
ENDBRANCH  30  33
ENDBRANCH  15  27
BRANCH   1  38
ATOM     37  C   LIG    1       -0.743   1.571   4.829  0.00  0.00    +0.039 C 
ATOM     38  C   LIG    1       -1.286   0.784   3.646  0.00  0.00    -0.076 C 
ATOM     39  C   LIG    1       -2.459   0.128   3.736  0.00  0.00    +0.007 C 
ENDBRANCH   1  38
BRANCH  24  40
ATOM     40  N   LIG    1        1.538   0.411  -0.013  0.00  0.00    +0.384 N 
ATOM     41  H   LIG    1        1.849  -0.543  -0.139  0.00  0.00    -0.085 HD
ATOM     42  H   LIG    1        1.870   0.713   0.892  0.00  0.00    -0.085 HD
BRANCH  40  43
ATOM     43  C   LIG    1        2.231   1.275  -1.085  0.00  0.00    -0.066 C 
BRANCH  43  44
ATOM     44  C   LIG    1        3.716   0.864  -1.236  0.00  0.00    +0.065 C 
BRANCH  44  45
ATOM     45  N   LIG    1        3.937  -0.575  -1.460  0.00  0.00    -0.301 NA
ATOM     46  C   LIG    1        5.326  -0.930  -1.132  0.00  0.00    +0.107 C 
ATOM     47  C   LIG    1        5.576  -2.447  -1.083  0.00  0.00    +0.181 C 
ATOM     48  S   LIG    1        5.233  -3.173  -2.778  0.00  0.00    -0.029 S 
ATOM     49  O   LIG    1        6.118  -2.541  -3.763  0.00  0.00    -0.174 OA
ATOM     50  O   LIG    1        5.196  -4.636  -2.680  0.00  0.00    -0.174 OA
ATOM     51  C   LIG    1        3.488  -2.524  -3.009  0.00  0.00    +0.181 C 
ATOM     52  C   LIG    1        3.478  -0.999  -2.794  0.00  0.00    +0.107 C 
ENDBRANCH  44  45
ENDBRANCH  43  44
ENDBRANCH  40  43
ENDBRANCH  24  40
TORSDOF 8
