REMARK  Name = DB15292
REMARK                            x       y       z     vdW  Elec       q    Type
REMARK                         _______ _______ _______ _____ _____    ______ ____
ROOT
ATOM      1  N   LIG    1       -1.486   3.679   3.687  0.00  0.00    -0.230 N 
ATOM      2  H   LIG    1       -1.135   2.710   3.641  0.00  0.00    +0.206 HD
ATOM      3  C   LIG    1       -1.636   4.249   2.501  0.00  0.00    +0.086 A 
ATOM      4  C   LIG    1       -1.307   3.505   1.277  0.00  0.00    +0.044 A 
ATOM      5  C   LIG    1       -0.828   2.186   1.269  0.00  0.00    +0.017 A 
ATOM      6  C   LIG    1       -0.529   1.536   0.066  0.00  0.00    -0.047 A 
ATOM      7  C   LIG    1       -0.709   2.207  -1.147  0.00  0.00    +0.007 A 
ATOM      8  C   LIG    1       -1.186   3.516  -1.162  0.00  0.00    +0.047 A 
ATOM      9  C   LIG    1       -1.481   4.155   0.041  0.00  0.00    +0.138 A 
ATOM     10  O   LIG    1       -1.948   5.452  -0.033  0.00  0.00    -0.453 OA
ATOM     11  C   LIG    1       -2.243   6.109   1.129  0.00  0.00    +0.156 A 
ATOM     12  C   LIG    1       -2.100   5.552   2.361  0.00  0.00    +0.077 A 
ENDROOT
BRANCH  11  13
ATOM     13  C   LIG    1       -2.728   7.494   0.853  0.00  0.00    +0.107 A 
ATOM     14  N   LIG    1       -3.028   8.242   1.950  0.00  0.00    -0.251 NA
ATOM     15  C   LIG    1       -3.475   9.512   1.796  0.00  0.00    +0.120 A 
ATOM     16  C   LIG    1       -3.648  10.107   0.538  0.00  0.00    +0.007 A 
ATOM     17  C   LIG    1       -4.098  11.407   0.175  0.00  0.00    +0.017 A 
ATOM     18  C   LIG    1       -4.120  11.589  -1.191  0.00  0.00    +0.046 A 
ATOM     19  S   LIG    1       -3.596  10.190  -2.096  0.00  0.00    -0.097 S 
ATOM     20  C   LIG    1       -3.330   9.308  -0.598  0.00  0.00    +0.023 A 
ATOM     21  C   LIG    1       -2.866   7.992  -0.451  0.00  0.00    +0.047 A 
ENDBRANCH  11  13
BRANCH   1  22
ATOM     22  O   LIG    1       -1.698   4.116   4.851  0.00  0.00    -0.433 OA
ATOM     23  H   LIG    1       -2.018   4.988   4.974  0.00  0.00    +0.325 HD
ENDBRANCH   1  22
BRANCH   6  24
ATOM     24  C   LIG    1       -0.006   0.107   0.078  0.00  0.00    +0.033 C 
BRANCH  24  25
ATOM     25  C   LIG    1        1.528   0.038   0.162  0.00  0.00    -0.014 C 
BRANCH  25  26
ATOM     26  C   LIG    1        2.043  -1.414   0.179  0.00  0.00    -0.078 C 
BRANCH  26  27
ATOM     27  N   LIG    1        3.587  -1.474   0.089  0.00  0.00    +0.383 N 
ATOM     28  H   LIG    1        3.888  -0.934  -0.710  0.00  0.00    -0.082 HD
ATOM     29  C   LIG    1        4.039  -2.932  -0.157  0.00  0.00    -0.050 C 
ATOM     30  C   LIG    1        5.579  -2.982  -0.202  0.00  0.00    +0.141 C 
ATOM     31  O   LIG    1        6.132  -2.435   0.992  0.00  0.00    -0.383 OA
ATOM     32  C   LIG    1        5.803  -1.067   1.212  0.00  0.00    +0.141 C 
ATOM     33  C   LIG    1        4.277  -0.884   1.343  0.00  0.00    -0.050 C 
ENDBRANCH  26  27
ENDBRANCH  25  26
ENDBRANCH  24  25
ENDBRANCH   6  24
TORSDOF 6
