REMARK  Name = DB15188
REMARK                            x       y       z     vdW  Elec       q    Type
REMARK                         _______ _______ _______ _____ _____    ______ ____
ROOT
ATOM      1  CA  VAL A  1       -2.434  -0.623   3.197  0.00  0.00    +0.161 C 
ATOM      2  N   VAL A  1       -1.873  -0.479   1.842  0.00  0.00    -0.302 N 
ATOM      3  H   VAL A  1       -2.495  -0.018   1.193  0.00  0.00    +0.150 HD
ATOM      4  C   ARG A  8       -0.614  -0.714   1.414  0.00  0.00    +0.234 C 
ATOM      5  O   ARG A  8        0.245  -1.310   2.065  0.00  0.00    -0.274 OA
ATOM      6  CA  ARG A  8       -0.250  -0.124   0.037  0.00  0.00    +0.159 C 
ATOM      7  N   ARG A  8       -0.816   1.220  -0.049  0.00  0.00    -0.302 N 
ATOM      8  H   ARG A  8       -1.046   1.642   0.840  0.00  0.00    +0.150 HD
ATOM      9  C   GLN A  7       -1.075   1.915  -1.165  0.00  0.00    +0.234 C 
ATOM     10  O   GLN A  7       -0.828   1.521  -2.304  0.00  0.00    -0.274 OA
ATOM     11  CA  GLN A  7       -1.756   3.285  -0.959  0.00  0.00    +0.159 C 
ATOM     12  N   GLN A  7       -2.641   3.327   0.209  0.00  0.00    -0.302 N 
ATOM     13  H   GLN A  7       -2.377   3.995   0.919  0.00  0.00    +0.150 HD
ATOM     14  C   HIS A  6       -3.734   2.570   0.424  0.00  0.00    +0.234 C 
ATOM     15  O   HIS A  6       -4.159   1.728  -0.367  0.00  0.00    -0.274 OA
ATOM     16  CA  HIS A  6       -4.452   2.781   1.774  0.00  0.00    +0.161 C 
ATOM     17  N   HIS A  6       -4.310   4.148   2.293  0.00  0.00    -0.302 N 
ATOM     18  H   HIS A  6       -3.745   4.229   3.126  0.00  0.00    +0.150 HD
ATOM     19  C   GLU A  5       -4.764   5.279   1.725  0.00  0.00    +0.234 C 
ATOM     20  O   GLU A  5       -5.462   5.328   0.712  0.00  0.00    -0.274 OA
ATOM     21  CA  GLU A  5       -4.334   6.579   2.414  0.00  0.00    +0.159 C 
ATOM     22  N   GLU A  5       -3.539   7.363   1.468  0.00  0.00    -0.302 N 
ATOM     23  H   GLU A  5       -3.896   7.343   0.523  0.00  0.00    +0.150 HD
ATOM     24  C   PRO A  4       -2.386   8.029   1.673  0.00  0.00    +0.234 C 
ATOM     25  O   PRO A  4       -1.786   8.563   0.741  0.00  0.00    -0.274 OA
ATOM     26  CA  PRO A  4       -1.779   8.136   3.094  0.00  0.00    +0.162 C 
ATOM     27  CB  PRO A  4       -1.360   9.580   3.436  0.00  0.00    +0.033 C 
ATOM     28  CG  PRO A  4        0.130   9.638   3.148  0.00  0.00    +0.021 C 
ATOM     29  CD  PRO A  4        0.600   8.250   3.554  0.00  0.00    +0.109 C 
ATOM     30  N   PRO A  4       -0.530   7.360   3.266  0.00  0.00    -0.288 N 
ATOM     31  C   SER A  3       -0.468   6.005   3.197  0.00  0.00    +0.239 C 
ATOM     32  O   SER A  3       -1.420   5.298   2.868  0.00  0.00    -0.273 OA
ATOM     33  CA  SER A  3        0.872   5.323   3.574  0.00  0.00    +0.185 C 
ATOM     34  N   SER A  3        0.696   4.043   4.283  0.00  0.00    -0.301 N 
ATOM     35  H   SER A  3        0.928   4.081   5.265  0.00  0.00    +0.150 HD
ATOM     36  C   GLN A  2        0.251   2.870   3.794  0.00  0.00    +0.234 C 
ATOM     37  O   GLN A  2       -0.069   2.682   2.619  0.00  0.00    -0.274 OA
ATOM     38  CA  GLN A  2        0.163   1.713   4.811  0.00  0.00    +0.159 C 
ATOM     39  N   GLN A  2       -0.578   0.582   4.256  0.00  0.00    -0.302 N 
ATOM     40  H   GLN A  2       -0.011  -0.111   3.789  0.00  0.00    +0.150 HD
ATOM     41  C   VAL A  1       -1.912   0.486   4.137  0.00  0.00    +0.234 C 
ATOM     42  O   VAL A  1       -2.715   1.251   4.672  0.00  0.00    -0.274 OA
ENDROOT
BRANCH   1  44
ATOM     43  CG1 VAL A  1       -2.892  -3.130   2.994  0.00  0.00    +0.009 C 
ATOM     44  CB  VAL A  1       -2.245  -2.028   3.852  0.00  0.00    +0.012 C 
ATOM     45  CG2 VAL A  1       -2.779  -2.124   5.298  0.00  0.00    +0.009 C 
ENDBRANCH   1  44
BRANCH   6  46
ATOM     46  CB  ARG A  8        1.273  -0.086  -0.257  0.00  0.00    +0.033 C 
BRANCH  46  47
ATOM     47  CG  ARG A  8        2.064   0.998   0.515  0.00  0.00    +0.017 C 
BRANCH  47  48
ATOM     48  CD  ARG A  8        3.593   0.858   0.399  0.00  0.00    +0.084 C 
BRANCH  48  49
ATOM     49  NE  ARG A  8        4.118  -0.250   1.219  0.00  0.00    -0.283 NA
ATOM     50  HE  ARG A  8        4.029  -1.171   0.814  0.00  0.00    +0.125 HD
BRANCH  49  51
ATOM     51  CZ  ARG A  8        4.620  -0.166   2.468  0.00  0.00    +0.167 C 
BRANCH  51  52
ATOM     52  NH2 ARG A  8        4.989  -1.293   3.093  0.00  0.00    -0.297 NA
ATOM     53 HH21 ARG A  8        4.891  -2.186   2.631  0.00  0.00    +0.121 HD
ATOM     54 HH22 ARG A  8        5.359  -1.254   4.032  0.00  0.00    +0.121 HD
ENDBRANCH  51  52
BRANCH  51  55
ATOM     55  NH1 ARG A  8        4.761   1.005   3.111  0.00  0.00    -0.297 NA
ATOM     56 HH11 ARG A  8        4.499   1.867   2.655  0.00  0.00    +0.121 HD
ATOM     57 HH12 ARG A  8        5.125   1.026   4.054  0.00  0.00    +0.121 HD
ENDBRANCH  51  55
ENDBRANCH  49  51
ENDBRANCH  48  49
ENDBRANCH  47  48
ENDBRANCH  46  47
ENDBRANCH   6  46
BRANCH  11  58
ATOM     58  CB  GLN A  7       -0.733   4.438  -0.801  0.00  0.00    +0.041 C 
BRANCH  58  59
ATOM     59  CG  GLN A  7        0.347   4.580  -1.897  0.00  0.00    +0.098 C 
BRANCH  59  60
ATOM     60  CD  GLN A  7       -0.222   4.798  -3.303  0.00  0.00    +0.211 C 
ATOM     61  OE1 GLN A  7       -1.212   5.505  -3.479  0.00  0.00    -0.276 OA
ATOM     62  NE2 GLN A  7        0.424   4.213  -4.315  0.00  0.00    -0.329 N 
ATOM     63 HE21 GLN A  7        0.094   4.333  -5.261  0.00  0.00    +0.145 HD
ATOM     64 HE22 GLN A  7        1.238   3.643  -4.142  0.00  0.00    +0.145 HD
ENDBRANCH  59  60
ENDBRANCH  58  59
ENDBRANCH  11  58
BRANCH  16  65
ATOM     65  CB  HIS A  6       -5.933   2.327   1.760  0.00  0.00    +0.057 C 
BRANCH  65  66
ATOM     66  CG  HIS A  6       -6.655   2.476   3.080  0.00  0.00    +0.059 C 
ATOM     67  CD2 HIS A  6       -7.769   3.228   3.404  0.00  0.00    +0.096 C 
ATOM     68  NE2 HIS A  6       -7.918   3.192   4.780  0.00  0.00    -0.293 NA
ATOM     69  HE2 HIS A  6       -8.639   3.651   5.320  0.00  0.00    +0.124 HD
ATOM     70  CE1 HIS A  6       -6.896   2.482   5.255  0.00  0.00    +0.155 C 
ATOM     71  ND1 HIS A  6       -6.098   2.054   4.279  0.00  0.00    -0.290 NA
ATOM     72  HD1 HIS A  6       -5.239   1.532   4.392  0.00  0.00    +0.124 HD
ENDBRANCH  65  66
ENDBRANCH  16  65
BRANCH  21  73
ATOM     73  CB  GLU A  5       -5.511   7.418   2.961  0.00  0.00    +0.043 C 
BRANCH  73  74
ATOM     74  CG  GLU A  5       -6.490   6.611   3.849  0.00  0.00    +0.123 C 
BRANCH  74  75
ATOM     75  CD  GLU A  5       -7.606   7.413   4.539  0.00  0.00    +0.305 C 
ATOM     76  OE2 GLU A  5       -8.395   6.751   5.251  0.00  0.00    -0.251 OA
BRANCH  75  77
ATOM     77  OE1 GLU A  5       -7.675   8.649   4.359  0.00  0.00    -0.481 OA
ATOM     78  HE1 GLU A  5       -8.351   9.147   4.775  0.00  0.00    +0.295 HD
ENDBRANCH  75  77
ENDBRANCH  74  75
ENDBRANCH  73  74
ENDBRANCH  21  73
BRANCH  33  79
ATOM     79  CB  SER A  3        1.811   5.176   2.348  0.00  0.00    +0.187 C 
BRANCH  79  80
ATOM     80  OG  SER A  3        3.157   5.126   2.771  0.00  0.00    -0.393 OA
ATOM     81  H   SER A  3        3.292   4.310   3.259  0.00  0.00    +0.209 HD
ENDBRANCH  79  80
ENDBRANCH  33  79
BRANCH  38  82
ATOM     82  CB  GLN A  2        1.570   1.217   5.207  0.00  0.00    +0.041 C 
BRANCH  82  83
ATOM     83  CG  GLN A  2        1.554   0.195   6.363  0.00  0.00    +0.098 C 
BRANCH  83  84
ATOM     84  CD  GLN A  2        2.948  -0.289   6.777  0.00  0.00    +0.211 C 
ATOM     85  OE1 GLN A  2        3.962   0.106   6.204  0.00  0.00    -0.276 OA
ATOM     86  NE2 GLN A  2        3.000  -1.160   7.786  0.00  0.00    -0.329 N 
ATOM     87 HE21 GLN A  2        3.890  -1.514   8.107  0.00  0.00    +0.145 HD
ATOM     88 HE22 GLN A  2        2.153  -1.469   8.241  0.00  0.00    +0.145 HD
ENDBRANCH  83  84
ENDBRANCH  82  83
ENDBRANCH  38  82
TORSDOF 22
