REMARK  Name = DB15323
REMARK                            x       y       z     vdW  Elec       q    Type
REMARK                         _______ _______ _______ _____ _____    ______ ____
ROOT
ATOM      1  C   LIG    1       -2.495  -2.714   0.208  0.00  0.00    +0.157 C 
ATOM      2  N   LIG    1       -1.925  -1.349   0.256  0.00  0.00    -0.264 N 
ATOM      3  C   LIG    1       -0.611  -1.214  -0.168  0.00  0.00    +0.333 A 
ATOM      4  O   LIG    1        0.043  -2.171  -0.600  0.00  0.00    -0.246 OA
ATOM      5  N   LIG    1       -0.101   0.077  -0.117  0.00  0.00    -0.277 N 
ATOM      6  C   LIG    1       -0.926   1.153   0.214  0.00  0.00    +0.111 A 
ATOM      7  C   LIG    1       -2.203   0.959   0.614  0.00  0.00    +0.112 A 
ATOM      8  C   LIG    1       -2.792  -0.357   0.654  0.00  0.00    +0.258 A 
ATOM      9  O   LIG    1       -3.959  -0.514   1.019  0.00  0.00    -0.267 OA
ENDROOT
BRANCH   6  10
ATOM     10  N   LIG    1       -0.352   2.425   0.176  0.00  0.00    -0.318 N 
ATOM     11  C   LIG    1       -0.816   3.497   1.078  0.00  0.00    +0.090 C 
ATOM     12  C   LIG    1        0.302   4.531   1.343  0.00  0.00    -0.057 C 
ATOM     13  C   LIG    1        0.846   5.141   0.041  0.00  0.00    -0.013 C 
ATOM     14  C   LIG    1        1.239   4.020  -0.927  0.00  0.00    +0.017 C 
ATOM     15  C   LIG    1        0.113   2.980  -1.112  0.00  0.00    +0.106 C 
BRANCH  12  16
ATOM     16  N   LIG    1       -0.274   5.653   2.220  0.00  0.00    +0.381 N 
ATOM     17  H   LIG    1       -0.623   5.271   3.088  0.00  0.00    -0.090 HD
ATOM     18  H   LIG    1        0.443   6.333   2.429  0.00  0.00    -0.090 HD
ATOM     19  H   LIG    1       -1.032   6.116   1.740  0.00  0.00    -0.090 HD
ENDBRANCH  12  16
ENDBRANCH   6  10
BRANCH   5  20
ATOM     20  C   LIG    1        1.378   0.167  -0.280  0.00  0.00    +0.164 C 
BRANCH  20  21
ATOM     21  C   LIG    1        1.974   0.128  -1.704  0.00  0.00    -0.008 A 
ATOM     22  C   LIG    1        3.356   0.333  -1.906  0.00  0.00    +0.057 A 
ATOM     23  C   LIG    1        3.886   0.301  -3.201  0.00  0.00    +0.022 A 
ATOM     24  C   LIG    1        3.059   0.075  -4.298  0.00  0.00    +0.039 A 
ATOM     25  C   LIG    1        1.695  -0.120  -4.111  0.00  0.00    +0.124 A 
ATOM     26  F   LIG    1        0.889  -0.332  -5.176  0.00  0.00    -0.205 F 
ATOM     27  C   LIG    1        1.158  -0.092  -2.826  0.00  0.00    +0.045 A 
BRANCH  22  28
ATOM     28  C   LIG    1        4.274   0.585  -0.798  0.00  0.00    +0.099 C 
ATOM     29  N   LIG    1        4.999   0.786   0.081  0.00  0.00    -0.191 NA
ENDBRANCH  22  28
ENDBRANCH  20  21
ENDBRANCH   5  20
TORSDOF 5
