REMARK  Name = DB15012
REMARK                            x       y       z     vdW  Elec       q    Type
REMARK                         _______ _______ _______ _____ _____    ______ ____
ROOT
ATOM      1  C   LIG    1        1.669   0.107   0.301  0.00  0.00    +0.039 A 
ATOM      2  C   LIG    1        2.280   0.438  -0.919  0.00  0.00    +0.015 A 
ATOM      3  C   LIG    1        3.654   0.299  -1.119  0.00  0.00    +0.034 A 
ATOM      4  C   LIG    1        4.428  -0.201  -0.065  0.00  0.00    +0.134 A 
ATOM      5  N   LIG    1        5.767  -0.427  -0.012  0.00  0.00    -0.049 NA
ATOM      6  O   LIG    1        5.948  -0.930   1.282  0.00  0.00    -0.242 OA
ATOM      7  N   LIG    1        4.766  -1.022   2.027  0.00  0.00    -0.049 NA
ATOM      8  C   LIG    1        3.825  -0.559   1.163  0.00  0.00    +0.135 A 
ATOM      9  C   LIG    1        2.443  -0.414   1.349  0.00  0.00    +0.046 A 
ENDROOT
BRANCH   1  11
ATOM     10  O   LIG    1       -0.424  -0.651   1.095  0.00  0.00    -0.270 OA
ATOM     11  C   LIG    1        0.171   0.240   0.482  0.00  0.00    +0.247 C 
ATOM     12  N   LIG    1       -0.474   1.318  -0.054  0.00  0.00    -0.298 N 
ATOM     13  C   LIG    1        0.165   2.650  -0.131  0.00  0.00    +0.108 C 
ATOM     14  C   LIG    1       -0.083   3.368   1.218  0.00  0.00    +0.019 C 
ATOM     15  C   LIG    1       -1.587   3.457   1.551  0.00  0.00    +0.003 C 
ATOM     16  C   LIG    1       -2.287   2.090   1.401  0.00  0.00    +0.019 C 
ATOM     17  C   LIG    1       -1.945   1.410   0.052  0.00  0.00    +0.108 C 
ENDBRANCH   1  11
TORSDOF 1
