REMARK  Name = DB15366
REMARK                            x       y       z     vdW  Elec       q    Type
REMARK                         _______ _______ _______ _____ _____    ______ ____
ROOT
ATOM      1  CA  SER A  7       -0.429   0.981  -0.216  0.00  0.00    +0.184 C 
ENDROOT
BRANCH   1   2
ATOM      2  C   SER A  7        1.013   0.785   0.288  0.00  0.00    +0.236 C 
ATOM      3  O   SER A  7        1.361  -0.311   0.728  0.00  0.00    -0.274 OA
ATOM      4  N   LYS A  8        1.816   1.854   0.178  0.00  0.00    -0.302 N 
ATOM      5  H   LYS A  8        1.442   2.723  -0.175  0.00  0.00    +0.150 HD
BRANCH   4   6
ATOM      6  CA  LYS A  8        3.246   1.850   0.476  0.00  0.00    +0.159 C 
BRANCH   6   7
ATOM      7  C   LYS A  8        3.476   2.203   1.950  0.00  0.00    +0.234 C 
ATOM      8  O   LYS A  8        2.999   3.243   2.406  0.00  0.00    -0.274 OA
ATOM      9  N   VAL A  9        4.213   1.331   2.656  0.00  0.00    -0.302 N 
ATOM     10  H   VAL A  9        4.569   0.498   2.209  0.00  0.00    +0.150 HD
BRANCH   9  11
ATOM     11  CA  VAL A  9        4.597   1.521   4.054  0.00  0.00    +0.161 C 
BRANCH  11  12
ATOM     12  C   VAL A  9        5.843   2.422   4.122  0.00  0.00    +0.234 C 
ATOM     13  O   VAL A  9        6.884   2.068   3.563  0.00  0.00    -0.274 OA
ATOM     14  N   ASP A 10        5.698   3.568   4.803  0.00  0.00    -0.302 N 
ATOM     15  H   ASP A 10        4.805   3.786   5.223  0.00  0.00    +0.150 HD
BRANCH  14  16
ATOM     16  CA  ASP A 10        6.752   4.568   4.988  0.00  0.00    +0.169 C 
BRANCH  16  17
ATOM     17  C   ASP A 10        7.770   4.134   6.052  0.00  0.00    +0.234 C 
ATOM     18  O   ASP A 10        7.404   3.496   7.041  0.00  0.00    -0.274 OA
ATOM     19  N   LEU A 11        9.026   4.558   5.842  0.00  0.00    -0.302 N 
ATOM     20  H   LEU A 11        9.232   5.071   4.997  0.00  0.00    +0.150 HD
BRANCH  19  21
ATOM     21  CA  LEU A 11       10.119   4.482   6.815  0.00  0.00    +0.159 C 
BRANCH  21  22
ATOM     22  C   LEU A 11        9.950   5.561   7.915  0.00  0.00    +0.237 C 
ATOM     23  O   LEU A 11        9.217   6.524   7.684  0.00  0.00    -0.274 OA
ATOM     24  N   PRO A 12       10.650   5.417   9.069  0.00  0.00    -0.288 N 
ATOM     25  CA  PRO A 12       10.706   6.455  10.125  0.00  0.00    +0.162 C 
ATOM     26  CB  PRO A 12       11.715   5.891  11.140  0.00  0.00    +0.033 C 
ATOM     27  CG  PRO A 12       11.624   4.387  10.968  0.00  0.00    +0.021 C 
ATOM     28  CD  PRO A 12       11.415   4.231   9.468  0.00  0.00    +0.109 C 
BRANCH  25  29
ATOM     29  C   PRO A 12       11.121   7.852   9.625  0.00  0.00    +0.234 C 
ATOM     30  O   PRO A 12       12.150   7.978   8.960  0.00  0.00    -0.274 OA
ATOM     31  N   ARG A 13       10.281   8.857   9.932  0.00  0.00    -0.301 N 
ATOM     32  H   ARG A 13        9.463   8.659  10.490  0.00  0.00    +0.150 HD
BRANCH  31  33
ATOM     33  CA  ARG A 13       10.427  10.257   9.492  0.00  0.00    +0.182 C 
BRANCH  33  34
ATOM     34  C   ARG A 13       10.907  11.168  10.698  0.00  0.00    +0.325 C 
ATOM     35  O   ARG A 13       10.304  12.253  10.871  0.00  0.00    -0.249 OA
BRANCH  34  36
ATOM     36  OXT ARG A 13       11.908  10.740  11.322  0.00  0.00    -0.479 OA
ATOM     37  HXT ARG A 13       12.276   9.906  11.103  0.00  0.00    +0.295 HD
ENDBRANCH  34  36
ENDBRANCH  33  34
BRANCH  33  38
ATOM     38  CB  ARG A 13        9.093  10.732   8.832  0.00  0.00    +0.035 C 
BRANCH  38  39
ATOM     39  CG  ARG A 13        8.688   9.921   7.587  0.00  0.00    +0.017 C 
BRANCH  39  40
ATOM     40  CD  ARG A 13        7.462  10.498   6.859  0.00  0.00    +0.084 C 
BRANCH  40  41
ATOM     41  NE  ARG A 13        7.180   9.793   5.596  0.00  0.00    -0.283 NA
ATOM     42  HE  ARG A 13        6.482   9.063   5.655  0.00  0.00    +0.125 HD
BRANCH  41  43
ATOM     43  CZ  ARG A 13        7.770   9.989   4.400  0.00  0.00    +0.167 C 
BRANCH  43  44
ATOM     44  NH1 ARG A 13        7.381   9.242   3.358  0.00  0.00    -0.297 NA
ATOM     45 HH11 ARG A 13        7.806   9.365   2.451  0.00  0.00    +0.121 HD
ATOM     46 HH12 ARG A 13        6.649   8.553   3.473  0.00  0.00    +0.121 HD
ENDBRANCH  43  44
BRANCH  43  47
ATOM     47  NH2 ARG A 13        8.733  10.906   4.215  0.00  0.00    -0.297 NA
ATOM     48 HH21 ARG A 13        9.039  11.476   4.991  0.00  0.00    +0.121 HD
ATOM     49 HH22 ARG A 13        9.158  11.024   3.307  0.00  0.00    +0.121 HD
ENDBRANCH  43  47
ENDBRANCH  41  43
ENDBRANCH  40  41
ENDBRANCH  39  40
ENDBRANCH  38  39
ENDBRANCH  33  38
ENDBRANCH  31  33
ENDBRANCH  25  29
ENDBRANCH  21  22
BRANCH  21  50
ATOM     50  CB  LEU A 11       11.454   4.676   6.057  0.00  0.00    +0.034 C 
BRANCH  50  51
ATOM     51  CG  LEU A 11       11.834   3.509   5.116  0.00  0.00    -0.015 C 
ATOM     52  CD2 LEU A 11       13.029   3.888   4.215  0.00  0.00    +0.007 C 
ATOM     53  CD1 LEU A 11       12.072   2.189   5.883  0.00  0.00    +0.007 C 
ENDBRANCH  50  51
ENDBRANCH  21  50
ENDBRANCH  19  21
ENDBRANCH  16  17
BRANCH  16  54
ATOM     54  CB  ASP A 10        6.189   5.964   5.366  0.00  0.00    +0.152 C 
BRANCH  54  55
ATOM     55  CG  ASP A 10        5.156   6.576   4.401  0.00  0.00    +0.307 C 
ATOM     56  OD1 ASP A 10        5.157   6.213   3.203  0.00  0.00    -0.251 OA
BRANCH  55  57
ATOM     57  OD2 ASP A 10        4.489   7.537   4.847  0.00  0.00    -0.481 OA
ATOM     58  HD2 ASP A 10        4.534   7.756   5.757  0.00  0.00    +0.295 HD
ENDBRANCH  55  57
ENDBRANCH  54  55
ENDBRANCH  16  54
ENDBRANCH  14  16
ENDBRANCH  11  12
BRANCH  11  59
ATOM     59  CB  VAL A  9        4.900   0.162   4.750  0.00  0.00    +0.012 C 
ATOM     60  CG2 VAL A  9        5.478   0.293   6.177  0.00  0.00    +0.009 C 
ATOM     61  CG1 VAL A  9        3.643  -0.727   4.789  0.00  0.00    +0.009 C 
ENDBRANCH  11  59
ENDBRANCH   9  11
ENDBRANCH   6   7
BRANCH   6  62
ATOM     62  CB  LYS A  8        3.963   2.852  -0.455  0.00  0.00    +0.032 C 
BRANCH  62  63
ATOM     63  CG  LYS A  8        3.743   2.554  -1.950  0.00  0.00    +0.000 C 
BRANCH  63  64
ATOM     64  CD  LYS A  8        4.570   3.459  -2.878  0.00  0.00    -0.019 C 
BRANCH  64  65
ATOM     65  CE  LYS A  8        4.191   3.339  -4.367  0.00  0.00    -0.086 C 
BRANCH  65  66
ATOM     66  NZ  LYS A  8        4.465   2.000  -4.923  0.00  0.00    +0.378 N 
ATOM     67  HZ1 LYS A  8        5.448   1.791  -4.829  0.00  0.00    -0.090 HD
ATOM     68  HZ2 LYS A  8        3.923   1.311  -4.421  0.00  0.00    -0.090 HD
ATOM     69  HZ3 LYS A  8        4.208   1.982  -5.900  0.00  0.00    -0.090 HD
ENDBRANCH  65  66
ENDBRANCH  64  65
ENDBRANCH  63  64
ENDBRANCH  62  63
ENDBRANCH   6  62
ENDBRANCH   4   6
ENDBRANCH   1   2
BRANCH   1  72
ATOM     70  C   PRO A  6       -0.104   0.064  -2.523  0.00  0.00    +0.234 C 
ATOM     71  O   PRO A  6        0.843   0.791  -2.828  0.00  0.00    -0.274 OA
ATOM     72  N   SER A  7       -0.743   0.094  -1.339  0.00  0.00    -0.301 N 
ATOM     73  H   SER A  7       -1.516  -0.539  -1.187  0.00  0.00    +0.150 HD
BRANCH  70  77
ATOM     74  C   HIS A  5       -1.798   0.616  -5.105  0.00  0.00    +0.237 C 
ATOM     75  O   HIS A  5       -2.570   1.025  -4.235  0.00  0.00    -0.274 OA
ATOM     76  N   PRO A  6       -0.858  -0.336  -4.881  0.00  0.00    -0.288 N 
ATOM     77  CA  PRO A  6       -0.645  -0.945  -3.554  0.00  0.00    +0.162 C 
ATOM     78  CB  PRO A  6        0.352  -2.082  -3.834  0.00  0.00    +0.033 C 
ATOM     79  CG  PRO A  6        1.134  -1.622  -5.054  0.00  0.00    +0.021 C 
ATOM     80  CD  PRO A  6        0.088  -0.870  -5.867  0.00  0.00    +0.109 C 
BRANCH  74  81
ATOM     81  CA  HIS A  5       -1.878   1.228  -6.519  0.00  0.00    +0.165 C 
BRANCH  81  84
ATOM     82  C   LEU A  4       -4.016   1.156  -7.802  0.00  0.00    +0.234 C 
ATOM     83  O   LEU A  4       -3.676   0.266  -8.582  0.00  0.00    -0.274 OA
ATOM     84  N   HIS A  5       -3.255   1.631  -6.805  0.00  0.00    -0.302 N 
ATOM     85  H   HIS A  5       -3.625   2.362  -6.215  0.00  0.00    +0.150 HD
BRANCH  82  86
ATOM     86  CA  LEU A  4       -5.383   1.841  -7.973  0.00  0.00    +0.159 C 
BRANCH  86  89
ATOM     87  C   PHE A  3       -4.698   4.041  -8.937  0.00  0.00    +0.234 C 
ATOM     88  O   PHE A  3       -4.154   4.461  -7.915  0.00  0.00    -0.274 OA
ATOM     89  N   LEU A  4       -5.311   2.847  -9.033  0.00  0.00    -0.302 N 
ATOM     90  H   LEU A  4       -5.745   2.588  -9.907  0.00  0.00    +0.150 HD
BRANCH  87  91
ATOM     91  CA  PHE A  3       -4.714   4.901 -10.213  0.00  0.00    +0.163 C 
BRANCH  91  94
ATOM     92  C   GLU A  2       -6.742   4.599 -11.621  0.00  0.00    +0.234 C 
ATOM     93  O   GLU A  2       -6.262   3.715 -12.333  0.00  0.00    -0.274 OA
ATOM     94  N   PHE A  3       -6.092   5.194 -10.609  0.00  0.00    -0.302 N 
ATOM     95  H   PHE A  3       -6.565   5.901 -10.065  0.00  0.00    +0.150 HD
BRANCH  92  96
ATOM     96  CA  GLU A  2       -8.187   5.070 -11.865  0.00  0.00    +0.159 C 
BRANCH  96  99
ATOM     97  C   LYS A  1       -7.983   6.430 -13.929  0.00  0.00    +0.230 C 
ATOM     98  O   LYS A  1       -7.604   7.455 -13.358  0.00  0.00    -0.274 OA
ATOM     99  N   GLU A  2       -8.383   5.317 -13.292  0.00  0.00    -0.303 N 
ATOM    100  H   GLU A  2       -8.699   4.524 -13.831  0.00  0.00    +0.149 HD
BRANCH  97 101
ATOM    101  CA  LYS A  1       -7.934   6.340 -15.470  0.00  0.00    +0.138 C 
BRANCH 101 102
ATOM    102  N   LYS A  1       -8.736   7.452 -16.006  0.00  0.00    -0.320 NA
ATOM    103  H1  LYS A  1       -8.414   8.341 -15.650  0.00  0.00    +0.119 HD
ATOM    104  H2  LYS A  1       -9.710   7.363 -15.753  0.00  0.00    +0.119 HD
ENDBRANCH 101 102
BRANCH 101 105
ATOM    105  CB  LYS A  1       -6.480   6.348 -16.008  0.00  0.00    +0.028 C 
BRANCH 105 106
ATOM    106  CG  LYS A  1       -5.585   5.227 -15.439  0.00  0.00    +0.000 C 
BRANCH 106 107
ATOM    107  CD  LYS A  1       -4.216   5.121 -16.131  0.00  0.00    -0.019 C 
BRANCH 107 108
ATOM    108  CE  LYS A  1       -3.238   4.161 -15.425  0.00  0.00    -0.086 C 
BRANCH 108 109
ATOM    109  NZ  LYS A  1       -3.699   2.760 -15.439  0.00  0.00    +0.378 N 
ATOM    110  HZ1 LYS A  1       -4.581   2.692 -14.951  0.00  0.00    -0.090 HD
ATOM    111  HZ2 LYS A  1       -3.815   2.451 -16.393  0.00  0.00    -0.090 HD
ATOM    112  HZ3 LYS A  1       -3.016   2.178 -14.976  0.00  0.00    -0.090 HD
ENDBRANCH 108 109
ENDBRANCH 107 108
ENDBRANCH 106 107
ENDBRANCH 105 106
ENDBRANCH 101 105
ENDBRANCH  97 101
ENDBRANCH  96  99
BRANCH  96 113
ATOM    113  CB  GLU A  2       -9.231   4.039 -11.384  0.00  0.00    +0.043 C 
BRANCH 113 114
ATOM    114  CG  GLU A  2       -9.135   3.688  -9.879  0.00  0.00    +0.123 C 
BRANCH 114 115
ATOM    115  CD  GLU A  2      -10.178   2.683  -9.359  0.00  0.00    +0.305 C 
ATOM    116  OE1 GLU A  2      -10.126   2.418  -8.137  0.00  0.00    -0.251 OA
BRANCH 115 117
ATOM    117  OE2 GLU A  2      -11.003   2.186 -10.159  0.00  0.00    -0.481 OA
ATOM    118  HE2 GLU A  2      -10.984   2.430 -11.063  0.00  0.00    +0.295 HD
ENDBRANCH 115 117
ENDBRANCH 114 115
ENDBRANCH 113 114
ENDBRANCH  96 113
ENDBRANCH  92  96
ENDBRANCH  91  94
BRANCH  91 119
ATOM    119  CB  PHE A  3       -3.932   6.226 -10.077  0.00  0.00    +0.067 C 
BRANCH 119 120
ATOM    120  CG  PHE A  3       -3.686   6.940 -11.396  0.00  0.00    -0.045 A 
ATOM    121  CD2 PHE A  3       -4.635   7.856 -11.901  0.00  0.00    +0.004 A 
ATOM    122  CE2 PHE A  3       -4.454   8.425 -13.154  0.00  0.00    +0.000 A 
ATOM    123  CZ  PHE A  3       -3.353   8.081 -13.927  0.00  0.00    +0.000 A 
ATOM    124  CE1 PHE A  3       -2.430   7.153 -13.460  0.00  0.00    +0.000 A 
ATOM    125  CD1 PHE A  3       -2.597   6.568 -12.212  0.00  0.00    +0.004 A 
ENDBRANCH 119 120
ENDBRANCH  91 119
ENDBRANCH  87  91
ENDBRANCH  86  89
BRANCH  86 126
ATOM    126  CB  LEU A  4       -6.524   0.850  -8.311  0.00  0.00    +0.034 C 
BRANCH 126 127
ATOM    127  CG  LEU A  4       -6.772  -0.275  -7.278  0.00  0.00    -0.015 C 
ATOM    128  CD2 LEU A  4       -7.084   0.276  -5.871  0.00  0.00    +0.007 C 
ATOM    129  CD1 LEU A  4       -7.867  -1.241  -7.778  0.00  0.00    +0.007 C 
ENDBRANCH 126 127
ENDBRANCH  86 126
ENDBRANCH  82  86
ENDBRANCH  81  84
BRANCH  81 130
ATOM    130  CB  HIS A  5       -0.984   2.486  -6.604  0.00  0.00    +0.086 C 
BRANCH 130 131
ATOM    131  CG  HIS A  5       -0.880   3.126  -7.970  0.00  0.00    +0.038 A 
ATOM    132  ND1 HIS A  5       -0.454   4.432  -8.144  0.00  0.00    -0.348 N 
ATOM    133  HD1 HIS A  5       -0.185   5.078  -7.416  0.00  0.00    +0.166 HD
ATOM    134  CE1 HIS A  5       -0.479   4.687  -9.455  0.00  0.00    +0.196 A 
ATOM    135  NE2 HIS A  5       -0.893   3.656 -10.182  0.00  0.00    -0.244 NA
ATOM    136  CD2 HIS A  5       -1.144   2.656  -9.240  0.00  0.00    +0.133 A 
ENDBRANCH 130 131
ENDBRANCH  81 130
ENDBRANCH  74  81
ENDBRANCH  70  77
ENDBRANCH   1  72
BRANCH   1 137
ATOM    137  CB  SER A  7       -1.473   0.757   0.898  0.00  0.00    +0.187 C 
BRANCH 137 138
ATOM    138  OG  SER A  7       -1.273   1.634   1.989  0.00  0.00    -0.393 OA
ATOM    139  H   SER A  7       -0.466   1.379   2.444  0.00  0.00    +0.209 HD
ENDBRANCH 137 138
ENDBRANCH   1 137
TORSDOF 60
