REMARK  Name = DB15436
REMARK                            x       y       z     vdW  Elec       q    Type
REMARK                         _______ _______ _______ _____ _____    ______ ____
ROOT
ATOM      1  S   LIG    1        0.077   1.097  -0.747  0.00  0.00    -0.073 S 
ENDROOT
BRANCH   1   3
ATOM      2  C   LIG    1       -1.445   3.317   0.020  0.00  0.00    +0.185 C 
ATOM      3  C   LIG    1       -0.071   2.634   0.232  0.00  0.00    +0.213 C 
ATOM      4  O   LIG    1        0.078   2.316   1.614  0.00  0.00    -0.355 OA
ATOM      5  C   LIG    1        0.153   3.450   2.477  0.00  0.00    +0.176 C 
ATOM      6  C   LIG    1       -1.215   4.180   2.428  0.00  0.00    +0.176 C 
ATOM      7  C   LIG    1       -1.605   4.532   0.969  0.00  0.00    +0.177 C 
BRANCH   2   8
ATOM      8  O   LIG    1       -1.621   3.711  -1.331  0.00  0.00    -0.386 OA
ATOM      9  H   LIG    1       -2.537   3.971  -1.455  0.00  0.00    +0.210 HD
ENDBRANCH   2   8
BRANCH   6  10
ATOM     10  O   LIG    1       -1.218   5.335   3.251  0.00  0.00    -0.386 OA
ATOM     11  H   LIG    1       -0.632   5.988   2.862  0.00  0.00    +0.210 HD
ENDBRANCH   6  10
BRANCH   7  12
ATOM     12  O   LIG    1       -2.914   5.074   0.896  0.00  0.00    -0.386 OA
ATOM     13  H   LIG    1       -3.536   4.418   1.218  0.00  0.00    +0.210 HD
ENDBRANCH   7  12
BRANCH   5  14
ATOM     14  C   LIG    1        0.490   2.941   3.895  0.00  0.00    +0.190 C 
BRANCH  14  15
ATOM     15  O   LIG    1        1.779   2.364   3.926  0.00  0.00    -0.392 OA
ATOM     16  H   LIG    1        1.960   2.057   4.817  0.00  0.00    +0.210 HD
ENDBRANCH  14  15
ENDBRANCH   5  14
ENDBRANCH   1   3
BRANCH   1  17
ATOM     17  C   LIG    1        1.853   0.755  -0.652  0.00  0.00    +0.118 C 
ATOM     18  N   LIG    1        2.646   1.502   0.011  0.00  0.00    -0.048 NA
BRANCH  17  19
ATOM     19  C   LIG    1        2.267  -0.478  -1.464  0.00  0.00    +0.066 C 
BRANCH  19  20
ATOM     20  C   LIG    1        2.849  -0.081  -2.837  0.00  0.00    +0.008 C 
BRANCH  20  21
ATOM     21  C   LIG    1        3.260  -1.296  -3.688  0.00  0.00    +0.013 C 
BRANCH  21  22
ATOM     22  C   LIG    1        4.001  -0.955  -4.996  0.00  0.00    +0.103 C 
BRANCH  22  23
ATOM     23  S   LIG    1        2.915  -0.040  -6.197  0.00  0.00    +0.019 S 
ATOM     24  O   LIG    1        3.440  -0.352  -7.600  0.00  0.00    -0.257 OA
ATOM     25  C   LIG    1        3.458   1.691  -5.803  0.00  0.00    +0.121 C 
ENDBRANCH  22  23
ENDBRANCH  21  22
ENDBRANCH  20  21
ENDBRANCH  19  20
ENDBRANCH  17  19
BRANCH  18  26
ATOM     26  O   LIG    1        3.984   1.072  -0.082  0.00  0.00    -0.207 OA
BRANCH  26  27
ATOM     27  S   LIG    1        4.968   2.157   0.728  0.00  0.00    +0.271 S 
ATOM     28  O   LIG    1        4.507   2.107   2.121  0.00  0.00    -0.106 OA
ATOM     29  O   LIG    1        4.738   3.442   0.054  0.00  0.00    -0.106 OA
BRANCH  27  30
ATOM     30  O   LIG    1        6.313   1.609   0.525  0.00  0.00    -0.221 OA
ATOM     31  H   LIG    1        6.551   1.675  -0.413  0.00  0.00    +0.248 HD
ENDBRANCH  27  30
ENDBRANCH  26  27
ENDBRANCH  18  26
ENDBRANCH   1  17
TORSDOF 15
