REMARK  Name = DB15224
REMARK                            x       y       z     vdW  Elec       q    Type
REMARK                         _______ _______ _______ _____ _____    ______ ____
ROOT
ATOM      1  C   LIG    1        0.758   0.481   0.394  0.00  0.00    +0.033 A 
ATOM      2  C   LIG    1        1.512   1.591   0.804  0.00  0.00    +0.024 A 
ATOM      3  C   LIG    1        2.896   1.491   0.917  0.00  0.00    +0.013 A 
ATOM      4  C   LIG    1        3.554   0.289   0.624  0.00  0.00    +0.019 A 
ATOM      5  C   LIG    1        2.794  -0.813   0.206  0.00  0.00    +0.013 A 
ATOM      6  C   LIG    1        1.411  -0.714   0.089  0.00  0.00    +0.024 A 
ENDROOT
BRANCH   1   8
ATOM      7  C   LIG    1       -1.558   1.366   0.682  0.00  0.00    +0.203 C 
ATOM      8  N   LIG    1       -0.640   0.481   0.231  0.00  0.00    -0.287 N 
ATOM      9  H   LIG    1       -0.998  -0.320  -0.269  0.00  0.00    +0.155 HD
ATOM     10  O   LIG    1       -1.300   2.350   1.384  0.00  0.00    -0.277 OA
BRANCH   7  11
ATOM     11  C   LIG    1       -3.014   1.029   0.236  0.00  0.00    +0.013 C 
BRANCH  11  12
ATOM     12  N   LIG    1       -3.981   1.848   1.057  0.00  0.00    +0.386 N 
ATOM     13  H   LIG    1       -3.821   2.829   0.873  0.00  0.00    -0.089 HD
ATOM     14  H   LIG    1       -4.925   1.601   0.798  0.00  0.00    -0.089 HD
ATOM     15  H   LIG    1       -3.834   1.649   2.036  0.00  0.00    -0.089 HD
ENDBRANCH  11  12
BRANCH  11  16
ATOM     16  C   LIG    1       -3.220   1.231  -1.292  0.00  0.00    -0.007 C 
BRANCH  16  17
ATOM     17  C   LIG    1       -4.592   0.775  -1.832  0.00  0.00    -0.003 C 
BRANCH  17  18
ATOM     18  C   LIG    1       -4.718   0.959  -3.353  0.00  0.00    -0.020 C 
BRANCH  18  19
ATOM     19  C   LIG    1       -6.084   0.499  -3.890  0.00  0.00    -0.086 C 
BRANCH  19  20
ATOM     20  N   LIG    1       -6.194   0.691  -5.349  0.00  0.00    +0.378 N 
ATOM     21  H   LIG    1       -6.090   1.671  -5.571  0.00  0.00    -0.090 HD
ATOM     22  H   LIG    1       -5.473   0.162  -5.818  0.00  0.00    -0.090 HD
ATOM     23  H   LIG    1       -7.100   0.373  -5.664  0.00  0.00    -0.090 HD
ENDBRANCH  19  20
ENDBRANCH  18  19
ENDBRANCH  17  18
ENDBRANCH  16  17
ENDBRANCH  11  16
ENDBRANCH   7  11
ENDBRANCH   1   8
BRANCH   4  24
ATOM     24  C   LIG    1        5.047   0.216   0.753  0.00  0.00    +0.183 C 
ATOM     25  O   LIG    1        5.739   1.192   1.054  0.00  0.00    -0.290 OA
BRANCH  24  26
ATOM     26  C   LIG    1        5.714  -1.158   0.521  0.00  0.00    +0.203 C 
BRANCH  26  27
ATOM     27  N   LIG    1        7.168  -1.172   0.713  0.00  0.00    -0.315 N 
ATOM     28  C   LIG    1        8.102  -1.220  -0.306  0.00  0.00    +0.070 A 
ATOM     29  C   LIG    1        8.008  -1.272  -1.703  0.00  0.00    +0.028 A 
ATOM     30  C   LIG    1        9.211  -1.313  -2.413  0.00  0.00    +0.002 A 
ATOM     31  C   LIG    1       10.449  -1.302  -1.770  0.00  0.00    +0.002 A 
ATOM     32  C   LIG    1       10.541  -1.248  -0.379  0.00  0.00    +0.030 A 
ATOM     33  C   LIG    1        9.350  -1.205   0.360  0.00  0.00    +0.090 A 
ATOM     34  N   LIG    1        9.181  -1.146   1.714  0.00  0.00    -0.226 NA
ATOM     35  C   LIG    1        7.883  -1.128   1.908  0.00  0.00    +0.167 A 
BRANCH  35  36
ATOM     36  C   LIG    1        7.304  -1.069   3.272  0.00  0.00    +0.191 A 
ATOM     37  C   LIG    1        7.899  -0.571   4.441  0.00  0.00    +0.194 A 
ATOM     38  N   LIG    1        7.071  -0.692   5.452  0.00  0.00    -0.033 NA
ATOM     39  O   LIG    1        5.934  -1.276   4.904  0.00  0.00    -0.240 OA
ATOM     40  N   LIG    1        6.097  -1.504   3.542  0.00  0.00    -0.044 NA
BRANCH  37  41
ATOM     41  N   LIG    1        9.148  -0.017   4.587  0.00  0.00    -0.324 N 
ATOM     42  H   LIG    1        9.730   0.128   3.774  0.00  0.00    +0.148 HD
BRANCH  41  43
ATOM     43  C   LIG    1        9.729   0.524   5.807  0.00  0.00    +0.118 C 
BRANCH  43  44
ATOM     44  C   LIG    1       11.223   0.854   5.666  0.00  0.00    +0.137 C 
BRANCH  44  45
ATOM     45  C   LIG    1       12.054  -0.289   5.252  0.00  0.00    +0.064 C 
ATOM     46  N   LIG    1       12.706  -1.188   4.926  0.00  0.00    -0.197 NA
ENDBRANCH  44  45
ENDBRANCH  43  44
ENDBRANCH  41  43
ENDBRANCH  37  41
ENDBRANCH  35  36
ENDBRANCH  26  27
ENDBRANCH  24  26
ENDBRANCH   4  24
TORSDOF 16
