REMARK  Name = DB15449
REMARK                            x       y       z     vdW  Elec       q    Type
REMARK                         _______ _______ _______ _____ _____    ______ ____
ROOT
ATOM      1  C   LIG    1        1.170  -3.010  -3.542  0.00  0.00    +0.073 A 
ATOM      2  C   LIG    1        0.180  -3.933  -3.174  0.00  0.00    +0.129 A 
ATOM      3  N   LIG    1       -0.427  -4.755  -4.068  0.00  0.00    -0.221 NA
ATOM      4  C   LIG    1       -0.054  -4.662  -5.377  0.00  0.00    +0.227 A 
ATOM      5  N   LIG    1        0.910  -3.798  -5.817  0.00  0.00    -0.221 NA
ATOM      6  C   LIG    1        1.500  -2.987  -4.903  0.00  0.00    +0.129 A 
ENDROOT
BRANCH   1   9
ATOM      7  N   LIG    1        1.496  -2.224  -1.263  0.00  0.00    -0.311 N 
ATOM      8  H   LIG    1        0.827  -2.939  -1.018  0.00  0.00    +0.149 HD
ATOM      9  C   LIG    1        1.847  -2.085  -2.556  0.00  0.00    +0.247 C 
ATOM     10  O   LIG    1        2.674  -1.254  -2.939  0.00  0.00    -0.270 OA
BRANCH   7  11
ATOM     11  C   LIG    1        2.012  -1.416  -0.157  0.00  0.00    +0.104 C 
BRANCH  11  12
ATOM     12  C   LIG    1        1.452   0.021  -0.107  0.00  0.00    +0.019 C 
BRANCH  12  13
ATOM     13  C   LIG    1       -0.082   0.097   0.024  0.00  0.00    +0.002 C 
BRANCH  13  14
ATOM     14  C   LIG    1       -0.606   1.541   0.110  0.00  0.00    +0.001 C 
BRANCH  14  15
ATOM     15  C   LIG    1       -2.138   1.615   0.229  0.00  0.00    +0.009 C 
BRANCH  15  16
ATOM     16  C   LIG    1       -2.661   3.067   0.319  0.00  0.00    +0.098 C 
BRANCH  16  19
ATOM     17  N   LIG    1       -4.667   4.449   0.394  0.00  0.00    -0.197 N 
ATOM     18  H   LIG    1       -4.154   5.267   0.099  0.00  0.00    +0.182 HD
ATOM     19  C   LIG    1       -4.190   3.192   0.416  0.00  0.00    +0.235 C 
ATOM     20  O   LIG    1       -4.904   2.190   0.504  0.00  0.00    -0.274 OA
BRANCH  17  21
ATOM     21  O   LIG    1       -6.052   4.618   0.300  0.00  0.00    -0.295 OA
ATOM     22  H   LIG    1       -6.353   3.765  -0.026  0.00  0.00    +0.241 HD
ENDBRANCH  17  21
ENDBRANCH  16  19
ENDBRANCH  15  16
ENDBRANCH  14  15
ENDBRANCH  13  14
ENDBRANCH  12  13
ENDBRANCH  11  12
ENDBRANCH   7  11
ENDBRANCH   1   9
BRANCH   4  23
ATOM     23  N   LIG    1       -0.665  -5.536  -6.327  0.00  0.00    -0.237 N 
BRANCH  23  24
ATOM     24  C   LIG    1        0.009  -5.793  -7.548  0.00  0.00    +0.060 A 
ATOM     25  C   LIG    1       -0.446  -5.266  -8.772  0.00  0.00    +0.063 A 
ATOM     26 CL   LIG    1       -1.870  -4.284  -8.870  0.00  0.00    -0.082 Cl
ATOM     27  C   LIG    1        0.264  -5.522  -9.947  0.00  0.00    +0.022 A 
ATOM     28  C   LIG    1        1.429  -6.287  -9.915  0.00  0.00    +0.002 A 
ATOM     29  C   LIG    1        1.894  -6.797  -8.705  0.00  0.00    +0.002 A 
ATOM     30  C   LIG    1        1.191  -6.546  -7.528  0.00  0.00    +0.025 A 
ENDBRANCH  23  24
BRANCH  23  31
ATOM     31  C   LIG    1       -1.926  -6.175  -6.123  0.00  0.00    +0.042 A 
ATOM     32  C   LIG    1       -2.953  -5.543  -5.402  0.00  0.00    +0.024 A 
ATOM     33  C   LIG    1       -4.189  -6.159  -5.225  0.00  0.00    +0.002 A 
ATOM     34  C   LIG    1       -4.418  -7.417  -5.774  0.00  0.00    +0.000 A 
ATOM     35  C   LIG    1       -3.422  -8.059  -6.502  0.00  0.00    +0.002 A 
ATOM     36  C   LIG    1       -2.188  -7.440  -6.679  0.00  0.00    +0.024 A 
ENDBRANCH  23  31
ENDBRANCH   4  23
TORSDOF 12
