REMARK  Name = DB15305
REMARK                            x       y       z     vdW  Elec       q    Type
REMARK                         _______ _______ _______ _____ _____    ______ ____
ROOT
ATOM      1  C   LIG    1        1.510  -0.189   0.294  0.00  0.00    +0.098 A 
ATOM      2  N   LIG    1        2.107  -1.311  -0.223  0.00  0.00    -0.227 NA
ATOM      3  C   LIG    1        3.388  -1.461  -0.152  0.00  0.00    +0.141 A 
ATOM      4  C   LIG    1        4.047  -2.633  -0.688  0.00  0.00    +0.049 A 
ATOM      5  C   LIG    1        5.387  -2.793  -0.617  0.00  0.00    +0.028 A 
ATOM      6  C   LIG    1        6.247  -1.781   0.009  0.00  0.00    +0.047 A 
ATOM      7  C   LIG    1        5.579  -0.703   0.499  0.00  0.00    +0.119 A 
ATOM      8  N   LIG    1        4.202  -0.487   0.457  0.00  0.00    -0.266 N 
ATOM      9  C   LIG    1        3.695   0.672   1.017  0.00  0.00    +0.259 A 
ATOM     10  O   LIG    1        4.340   1.562   1.577  0.00  0.00    -0.267 OA
ATOM     11  C   LIG    1        2.251   0.783   0.897  0.00  0.00    +0.100 A 
ENDROOT
BRANCH   1  19
ATOM     12  C   LIG    1       -5.219   2.690  -0.026  0.00  0.00    +0.067 C 
ATOM     13  C   LIG    1       -3.949   1.873  -0.003  0.00  0.00    +0.059 A 
ATOM     14  N   LIG    1       -4.011   0.569  -0.192  0.00  0.00    -0.231 NA
ATOM     15  C   LIG    1       -2.727   0.131  -0.114  0.00  0.00    +0.157 A 
ATOM     16  C   LIG    1       -2.162  -1.153  -0.230  0.00  0.00    -0.004 A 
ATOM     17  C   LIG    1       -2.988  -2.401  -0.484  0.00  0.00    +0.047 C 
ATOM     18  C   LIG    1       -0.771  -1.257  -0.097  0.00  0.00    +0.038 A 
ATOM     19  C   LIG    1        0.020  -0.119   0.140  0.00  0.00    +0.110 A 
ATOM     20  N   LIG    1       -0.518   1.129   0.263  0.00  0.00    -0.163 NA
ATOM     21  N   LIG    1       -1.850   1.195   0.128  0.00  0.00    -0.219 N 
ATOM     22  C   LIG    1       -2.639   2.312   0.199  0.00  0.00    +0.137 A 
ENDBRANCH   1  19
BRANCH   6  23
ATOM     23  N   LIG    1        7.631  -1.912   0.076  0.00  0.00    -0.326 N 
ATOM     24  C   LIG    1        8.373  -2.855  -0.779  0.00  0.00    +0.127 C 
ATOM     25  C   LIG    1        9.782  -2.317  -1.122  0.00  0.00    +0.035 C 
ATOM     26  C   LIG    1        9.968  -1.470  -2.362  0.00  0.00    +0.025 C 
ATOM     27  C   LIG    1       10.500  -2.886  -2.323  0.00  0.00    +0.025 C 
ATOM     28  N   LIG    1       10.556  -2.011   0.071  0.00  0.00    -0.308 NA
ATOM     29  H   LIG    1       11.464  -1.662  -0.201  0.00  0.00    +0.123 HD
ATOM     30  C   LIG    1        9.850  -1.000   0.847  0.00  0.00    +0.100 C 
ATOM     31  C   LIG    1        8.422  -1.452   1.236  0.00  0.00    +0.120 C 
ENDBRANCH   6  23
TORSDOF 2
