REMARK  Name = DB15110
REMARK                            x       y       z     vdW  Elec       q    Type
REMARK                         _______ _______ _______ _____ _____    ______ ____
ROOT
ATOM      1  C   LIG    1        1.877   1.762  -0.741  0.00  0.00    +0.220 A 
ATOM      2  N   LIG    1        3.117   2.082  -0.295  0.00  0.00    -0.212 NA
ATOM      3  C   LIG    1        3.942   2.716  -1.171  0.00  0.00    +0.097 A 
ATOM      4  C   LIG    1        5.296   3.182  -0.755  0.00  0.00    +0.091 A 
ATOM      5  N   LIG    1        6.076   2.879   0.337  0.00  0.00    -0.259 N 
ATOM      6  N   LIG    1        7.232   3.556   0.341  0.00  0.00    -0.166 NA
ATOM      7  C   LIG    1        7.245   4.291  -0.757  0.00  0.00    +0.151 A 
ATOM      8  C   LIG    1        6.038   4.115  -1.474  0.00  0.00    +0.012 A 
ATOM      9  C   LIG    1        5.481   4.689  -2.780  0.00  0.00    +0.044 C 
ATOM     10  C   LIG    1        4.561   3.641  -3.466  0.00  0.00    +0.043 C 
ATOM     11  C   LIG    1        3.566   3.000  -2.496  0.00  0.00    -0.001 A 
ATOM     12  C   LIG    1        2.265   2.629  -2.852  0.00  0.00    +0.120 A 
ATOM     13  N   LIG    1        1.412   2.011  -1.996  0.00  0.00    -0.222 NA
ENDROOT
BRANCH   7  14
ATOM     14  C   LIG    1        8.328   5.178  -1.141  0.00  0.00    +0.262 C 
ATOM     15  O   LIG    1        8.254   5.926  -2.114  0.00  0.00    -0.269 OA
ATOM     16  N   LIG    1        9.424   5.131  -0.373  0.00  0.00    -0.324 N 
ATOM     17  H   LIG    1       10.218   5.716  -0.588  0.00  0.00    +0.145 HD
ATOM     18  H   LIG    1        9.461   4.513   0.425  0.00  0.00    +0.145 HD
ENDBRANCH   7  14
BRANCH   1  19
ATOM     19  N   LIG    1        1.051   1.097   0.176  0.00  0.00    -0.281 N 
ATOM     20  H   LIG    1        1.494   0.857   1.051  0.00  0.00    +0.155 HD
BRANCH  19  25
ATOM     21  C   LIG    1       -2.091  -0.850   0.313  0.00  0.00    +0.032 A 
ATOM     22  C   LIG    1       -3.026   0.138  -0.020  0.00  0.00    +0.027 A 
ATOM     23  C   LIG    1       -2.628   1.450  -0.269  0.00  0.00    +0.050 A 
ATOM     24  C   LIG    1       -1.275   1.818  -0.204  0.00  0.00    +0.151 A 
ATOM     25  C   LIG    1       -0.326   0.826   0.103  0.00  0.00    +0.078 A 
ATOM     26  C   LIG    1       -0.741  -0.481   0.372  0.00  0.00    +0.050 A 
BRANCH  21  32
ATOM     27  C   LIG    1       -5.406  -3.079   3.710  0.00  0.00    -0.096 C 
ATOM     28  N   LIG    1       -4.374  -3.241   2.578  0.00  0.00    +0.380 N 
ATOM     29  H   LIG    1       -4.240  -4.224   2.380  0.00  0.00    -0.082 HD
ATOM     30  C   LIG    1       -4.857  -2.543   1.291  0.00  0.00    -0.060 C 
ATOM     31  C   LIG    1       -3.778  -2.719   0.196  0.00  0.00    +0.086 C 
ATOM     32  N   LIG    1       -2.459  -2.171   0.568  0.00  0.00    -0.333 N 
ATOM     33  C   LIG    1       -2.023  -2.829   1.815  0.00  0.00    +0.086 C 
ATOM     34  C   LIG    1       -3.016  -2.635   2.983  0.00  0.00    -0.060 C 
ENDBRANCH  21  32
BRANCH  24  35
ATOM     35  O   LIG    1       -0.823   3.113  -0.406  0.00  0.00    -0.404 OA
BRANCH  35  36
ATOM     36  C   LIG    1       -1.712   4.151  -0.818  0.00  0.00    +0.575 C 
ATOM     37  F   LIG    1       -2.629   4.414   0.115  0.00  0.00    -0.133 F 
ATOM     38  F   LIG    1       -2.291   3.870  -1.987  0.00  0.00    -0.133 F 
ATOM     39  F   LIG    1       -0.982   5.252  -0.988  0.00  0.00    -0.133 F 
ENDBRANCH  35  36
ENDBRANCH  24  35
ENDBRANCH  19  25
ENDBRANCH   1  19
BRANCH   5  40
ATOM     40  C   LIG    1        5.780   1.996   1.466  0.00  0.00    +0.172 C 
BRANCH  40  41
ATOM     41  C   LIG    1        5.401   2.769   2.746  0.00  0.00    +0.179 C 
BRANCH  41  42
ATOM     42  O   LIG    1        4.225   3.531   2.558  0.00  0.00    -0.393 OA
ATOM     43  H   LIG    1        4.044   4.021   3.364  0.00  0.00    +0.209 HD
ENDBRANCH  41  42
ENDBRANCH  40  41
ENDBRANCH   5  40
TORSDOF 9
