REMARK  Name = DB15670
REMARK                            x       y       z     vdW  Elec       q    Type
REMARK                         _______ _______ _______ _____ _____    ______ ____
ROOT
ATOM      1  C   LIG    1        1.560   0.416  -0.462  0.00  0.00    +0.141 A 
ATOM      2  N   LIG    1        2.107   1.136   0.556  0.00  0.00    -0.198 NA
ATOM      3  C   LIG    1        3.255   0.693   1.143  0.00  0.00    +0.220 A 
ATOM      4  N   LIG    1        3.924  -0.426   0.748  0.00  0.00    -0.212 NA
ATOM      5  C   LIG    1        3.382  -1.137  -0.270  0.00  0.00    +0.103 A 
ATOM      6  C   LIG    1        4.064  -2.349  -0.719  0.00  0.00    +0.161 A 
ATOM      7  N   LIG    1        3.625  -3.081  -1.674  0.00  0.00    -0.177 NA
ATOM      8  N   LIG    1        2.450  -2.702  -2.308  0.00  0.00    -0.243 N 
ATOM      9  H   LIG    1        2.166  -3.325  -3.050  0.00  0.00    +0.192 HD
ATOM     10  C   LIG    1        1.647  -1.622  -2.069  0.00  0.00    +0.277 A 
ATOM     11  O   LIG    1        0.628  -1.420  -2.728  0.00  0.00    -0.266 OA
ATOM     12  C   LIG    1        2.190  -0.763  -0.923  0.00  0.00    +0.108 A 
ENDROOT
BRANCH   3  13
ATOM     13  N   LIG    1        3.817   1.477   2.160  0.00  0.00    -0.300 N 
ATOM     14  C   LIG    1        4.932   0.962   2.994  0.00  0.00    +0.108 C 
ATOM     15  C   LIG    1        5.714   2.035   3.780  0.00  0.00    +0.023 C 
ATOM     16  C   LIG    1        4.776   2.897   4.628  0.00  0.00    +0.006 C 
ATOM     17  C   LIG    1        3.848   3.578   3.618  0.00  0.00    +0.023 C 
ATOM     18  C   LIG    1        3.024   2.541   2.828  0.00  0.00    +0.108 C 
BRANCH  16  19
ATOM     19  C   LIG    1        5.530   3.904   5.521  0.00  0.00    +0.122 C 
BRANCH  19  20
ATOM     20  C   LIG    1        6.380   4.860   4.790  0.00  0.00    +0.063 C 
ATOM     21  N   LIG    1        7.048   5.611   4.216  0.00  0.00    -0.197 NA
ENDBRANCH  19  20
ENDBRANCH  16  19
ENDBRANCH   3  13
BRANCH   1  22
ATOM     22  N   LIG    1        0.375   0.902  -1.048  0.00  0.00    -0.299 N 
ATOM     23  H   LIG    1        0.067   0.364  -1.846  0.00  0.00    +0.154 HD
BRANCH  22  27
ATOM     24  C   LIG    1       -2.183   4.149  -0.212  0.00  0.00    +0.030 A 
ATOM     25  C   LIG    1       -1.994   3.681  -1.519  0.00  0.00    +0.025 A 
ATOM     26  C   LIG    1       -1.146   2.608  -1.776  0.00  0.00    +0.025 A 
ATOM     27  C   LIG    1       -0.459   1.989  -0.733  0.00  0.00    +0.032 A 
ATOM     28  C   LIG    1       -0.649   2.439   0.578  0.00  0.00    +0.025 A 
ATOM     29  C   LIG    1       -1.498   3.512   0.833  0.00  0.00    +0.025 A 
BRANCH  24  33
ATOM     30  C   LIG    1       -4.616   7.718   0.557  0.00  0.00    +0.118 C 
ATOM     31  C   LIG    1       -4.826   6.409   1.332  0.00  0.00    +0.050 C 
ATOM     32  C   LIG    1       -3.568   5.517   1.353  0.00  0.00    +0.107 C 
ATOM     33  N   LIG    1       -3.030   5.233   0.010  0.00  0.00    -0.330 N 
ATOM     34  C   LIG    1       -2.720   6.504  -0.670  0.00  0.00    +0.107 C 
ATOM     35  C   LIG    1       -3.940   7.440  -0.794  0.00  0.00    +0.050 C 
BRANCH  30  36
ATOM     36  O   LIG    1       -5.837   8.408   0.382  0.00  0.00    -0.392 OA
ATOM     37  H   LIG    1       -6.428   7.854  -0.133  0.00  0.00    +0.210 HD
ENDBRANCH  30  36
ENDBRANCH  24  33
ENDBRANCH  22  27
ENDBRANCH   1  22
TORSDOF 7
