REMARK  Name = DB15161
REMARK                            x       y       z     vdW  Elec       q    Type
REMARK                         _______ _______ _______ _____ _____    ______ ____
ROOT
ATOM      1  C   LIG    1        5.760   0.079   0.000  0.00  0.00    +0.109 A 
ATOM      2  S   LIG    1        6.699   1.569   0.000  0.00  0.00    -0.067 S 
ATOM      3  C   LIG    1        8.164   0.599   0.000  0.00  0.00    +0.043 A 
ATOM      4  C   LIG    1        9.508   0.999   0.000  0.00  0.00    +0.062 A 
ATOM      5  C   LIG    1       10.486   0.003   0.000  0.00  0.00    +0.118 A 
ATOM      6  C   LIG    1       10.140  -1.349   0.000  0.00  0.00    +0.047 A 
ATOM      7  C   LIG    1        8.805  -1.759   0.000  0.00  0.00    +0.032 A 
ATOM      8  C   LIG    1        7.805  -0.774   0.000  0.00  0.00    +0.079 A 
ATOM      9  N   LIG    1        6.469  -1.022   0.000  0.00  0.00    -0.239 NA
ENDROOT
BRANCH   1  13
ATOM     10  C   LIG    1        1.438   0.051   0.000  0.00  0.00    +0.027 A 
ATOM     11  C   LIG    1        2.128   1.268   0.000  0.00  0.00    +0.023 A 
ATOM     12  C   LIG    1        3.521   1.284   0.000  0.00  0.00    +0.012 A 
ATOM     13  C   LIG    1        4.252   0.088   0.000  0.00  0.00    +0.007 A 
ATOM     14  C   LIG    1        3.549  -1.126   0.000  0.00  0.00    +0.012 A 
ATOM     15  C   LIG    1        2.157  -1.143   0.000  0.00  0.00    +0.023 A 
BRANCH  10  17
ATOM     16  C   LIG    1       -0.809   1.156   0.000  0.00  0.00    +0.125 C 
ATOM     17  N   LIG    1        0.035  -0.030   0.000  0.00  0.00    -0.347 N 
ATOM     18  H   LIG    1       -0.408  -0.937   0.000  0.00  0.00    +0.146 HD
ENDBRANCH  10  17
ENDBRANCH   1  13
BRANCH   5  19
ATOM     19  O   LIG    1       11.809   0.359   0.000  0.00  0.00    -0.507 OA
ATOM     20  H   LIG    1       11.944   1.309   0.000  0.00  0.00    +0.292 HD
ENDBRANCH   5  19
TORSDOF 3
