REMARK  Name = DB15214
REMARK                            x       y       z     vdW  Elec       q    Type
REMARK                         _______ _______ _______ _____ _____    ______ ____
ROOT
ATOM      1  C   LIG    1        1.805  -1.404   0.025  0.00  0.00    -0.006 C 
ATOM      2  C   LIG    1        1.560  -2.113  -1.328  0.00  0.00    +0.039 C 
ATOM      3  C   LIG    1        2.235  -3.486  -1.420  0.00  0.00    -0.044 A 
ATOM      4  C   LIG    1        1.809  -4.406  -2.384  0.00  0.00    +0.004 A 
ATOM      5  C   LIG    1        2.445  -5.633  -2.546  0.00  0.00    +0.004 A 
ATOM      6  C   LIG    1        3.535  -5.970  -1.743  0.00  0.00    -0.044 A 
ATOM      7  C   LIG    1        3.954  -5.065  -0.763  0.00  0.00    +0.007 A 
ATOM      8  C   LIG    1        3.319  -3.832  -0.579  0.00  0.00    -0.044 A 
ATOM      9  C   LIG    1        3.767  -2.907   0.554  0.00  0.00    +0.036 C 
ATOM     10  C   LIG    1        3.315  -1.456   0.325  0.00  0.00    +0.008 C 
ENDROOT
BRANCH   6  11
ATOM     11  C   LIG    1        4.233  -7.320  -1.917  0.00  0.00    +0.018 C 
ATOM     12  C   LIG    1        4.018  -8.332  -0.785  0.00  0.00    -0.003 C 
ATOM     13  C   LIG    1        5.148  -9.391  -0.889  0.00  0.00    -0.047 C 
ATOM     14  C   LIG    1        6.258  -8.693  -1.730  0.00  0.00    -0.010 C 
ATOM     15  C   LIG    1        5.753  -7.293  -2.107  0.00  0.00    +0.007 C 
BRANCH  13  16
ATOM     16  N   LIG    1        5.646  -9.869   0.488  0.00  0.00    +0.383 N 
ATOM     17  H   LIG    1        6.390 -10.543   0.376  0.00  0.00    -0.089 HD
ATOM     18  H   LIG    1        5.995  -9.085   1.020  0.00  0.00    -0.089 HD
ATOM     19  H   LIG    1        4.890 -10.299   1.001  0.00  0.00    -0.089 HD
ENDBRANCH  13  16
BRANCH  13  20
ATOM     20  C   LIG    1        4.627 -10.691  -1.583  0.00  0.00    +0.143 C 
BRANCH  20  21
ATOM     21  O   LIG    1        4.107 -10.462  -2.880  0.00  0.00    -0.396 OA
ATOM     22  H   LIG    1        3.803 -11.297  -3.244  0.00  0.00    +0.209 HD
ENDBRANCH  20  21
ENDBRANCH  13  20
ENDBRANCH   6  11
BRANCH   1  23
ATOM     23  C   LIG    1        1.283   0.054   0.029  0.00  0.00    +0.004 C 
BRANCH  23  24
ATOM     24  C   LIG    1       -0.245   0.188  -0.126  0.00  0.00    +0.000 C 
BRANCH  24  25
ATOM     25  C   LIG    1       -0.736   1.642  -0.009  0.00  0.00    +0.000 C 
BRANCH  25  26
ATOM     26  C   LIG    1       -2.264   1.771  -0.146  0.00  0.00    -0.000 C 
BRANCH  26  28
ATOM     27  C   LIG    1       -4.282   3.349  -0.162  0.00  0.00    +0.004 C 
ATOM     28  C   LIG    1       -2.758   3.224  -0.035  0.00  0.00    -0.003 C 
ENDBRANCH  26  28
ENDBRANCH  25  26
ENDBRANCH  24  25
ENDBRANCH  23  24
ENDBRANCH   1  23
TORSDOF 9
