REMARK  Name = DB15207
REMARK                            x       y       z     vdW  Elec       q    Type
REMARK                         _______ _______ _______ _____ _____    ______ ____
ROOT
ATOM      1  C   LIG    1       -0.624   2.499  -0.182  0.00  0.00    +0.047 C 
ATOM      2  C   LIG    1       -0.928   1.041   0.108  0.00  0.00    -0.013 A 
ATOM      3  C   LIG    1       -0.005  -0.023   0.264  0.00  0.00    +0.058 A 
ATOM      4  C   LIG    1       -0.758  -1.169   0.502  0.00  0.00    +0.099 A 
ATOM      5  N   LIG    1       -2.093  -0.876   0.421  0.00  0.00    -0.343 N 
ATOM      6  C   LIG    1       -2.207   0.473   0.157  0.00  0.00    +0.053 A 
ENDROOT
BRANCH   6   7
ATOM      7  C   LIG    1       -3.525   1.153  -0.012  0.00  0.00    +0.010 A 
ATOM      8  C   LIG    1       -4.092   1.731   1.128  0.00  0.00    +0.010 A 
ATOM      9  C   LIG    1       -5.321   2.382   1.055  0.00  0.00    +0.001 A 
ATOM     10  C   LIG    1       -5.990   2.467  -0.162  0.00  0.00    +0.001 A 
ATOM     11  C   LIG    1       -5.429   1.902  -1.307  0.00  0.00    +0.013 A 
ATOM     12  C   LIG    1       -4.192   1.241  -1.252  0.00  0.00    +0.064 A 
BRANCH  12  13
ATOM     13  C   LIG    1       -3.591   0.640  -2.529  0.00  0.00    +0.418 C 
ATOM     14  F   LIG    1       -2.390   1.169  -2.764  0.00  0.00    -0.166 F 
ATOM     15  F   LIG    1       -4.348   0.862  -3.606  0.00  0.00    -0.166 F 
ATOM     16  F   LIG    1       -3.458  -0.680  -2.394  0.00  0.00    -0.166 F 
ENDBRANCH  12  13
ENDBRANCH   6   7
BRANCH   3  17
ATOM     17  C   LIG    1        1.440   0.074   0.306  0.00  0.00    +0.250 C 
ATOM     18  N   LIG    1        2.071  -1.099   0.068  0.00  0.00    -0.281 N 
ATOM     19  H   LIG    1        1.473  -1.887  -0.133  0.00  0.00    +0.155 HD
ATOM     20  O   LIG    1        1.994   1.149   0.539  0.00  0.00    -0.270 OA
BRANCH  18  21
ATOM     21  C   LIG    1        3.447  -1.397   0.037  0.00  0.00    +0.034 A 
ATOM     22  C   LIG    1        4.472  -0.492   0.362  0.00  0.00    +0.025 A 
ATOM     23  C   LIG    1        5.803  -0.895   0.299  0.00  0.00    +0.029 A 
ATOM     24  C   LIG    1        6.120  -2.198  -0.086  0.00  0.00    +0.088 A 
ATOM     25  C   LIG    1        5.107  -3.101  -0.412  0.00  0.00    +0.029 A 
ATOM     26  C   LIG    1        3.776  -2.700  -0.346  0.00  0.00    +0.025 A 
BRANCH  24  27
ATOM     27  S   LIG    1        7.836  -2.702  -0.178  0.00  0.00    -0.006 S 
ATOM     28  O   LIG    1        7.874  -4.167  -0.109  0.00  0.00    -0.170 OA
ATOM     29  O   LIG    1        8.585  -1.895   0.791  0.00  0.00    -0.170 OA
ATOM     30  C   LIG    1        8.342  -2.172  -1.916  0.00  0.00    +0.200 C 
ENDBRANCH  24  27
ENDBRANCH  18  21
ENDBRANCH   3  17
BRANCH   5  31
ATOM     31  C   LIG    1       -3.179  -1.838   0.611  0.00  0.00    +0.149 C 
BRANCH  31  32
ATOM     32  C   LIG    1       -3.357  -2.250   2.086  0.00  0.00    +0.177 C 
BRANCH  32  33
ATOM     33  O   LIG    1       -3.709  -1.144   2.892  0.00  0.00    -0.393 OA
ATOM     34  H   LIG    1       -3.776  -1.438   3.803  0.00  0.00    +0.209 HD
ENDBRANCH  32  33
ENDBRANCH  31  32
ENDBRANCH   5  31
TORSDOF 8
