REMARK  Name = DB15296
REMARK                            x       y       z     vdW  Elec       q    Type
REMARK                         _______ _______ _______ _____ _____    ______ ____
ROOT
ATOM      1  C   LIG    1        1.486  -0.019   0.114  0.00  0.00    +0.030 C 
ENDROOT
BRANCH   1   2
ATOM      2  C   LIG    1        2.021  -1.444   0.040  0.00  0.00    -0.048 A 
ATOM      3  C   LIG    1        2.096  -2.095  -1.193  0.00  0.00    +0.007 A 
ATOM      4  C   LIG    1        2.586  -3.396  -1.266  0.00  0.00    +0.046 A 
ATOM      5  C   LIG    1        3.009  -4.059  -0.103  0.00  0.00    +0.124 A 
ATOM      6  C   LIG    1        2.927  -3.400   1.125  0.00  0.00    +0.046 A 
ATOM      7  C   LIG    1        2.438  -2.098   1.200  0.00  0.00    +0.007 A 
BRANCH   5   8
ATOM      8  O   LIG    1        3.510  -5.346  -0.079  0.00  0.00    -0.462 OA
BRANCH   8   9
ATOM      9  C   LIG    1        3.665  -6.053  -1.304  0.00  0.00    +0.444 C 
ATOM     10  F   LIG    1        4.184  -7.255  -1.060  0.00  0.00    -0.204 F 
ENDBRANCH   8   9
ENDBRANCH   5   8
ENDBRANCH   1   2
BRANCH   1  11
ATOM     11  CA  LIG    1       -0.060   0.065   0.037  0.00  0.00    +0.040 C 
BRANCH  11  12
ATOM     12  N   LIG    1       -0.663  -0.514   1.329  0.00  0.00    +0.387 N 
ATOM     13  H1  LIG    1       -0.367  -1.473   1.446  0.00  0.00    -0.089 HD
ATOM     14  H2  LIG    1       -0.351   0.020   2.128  0.00  0.00    -0.089 HD
ATOM     15  H3  LIG    1       -1.672  -0.490   1.284  0.00  0.00    -0.089 HD
ENDBRANCH  11  12
BRANCH  11  16
ATOM     16  C   LIG    1       -0.550   1.527  -0.143  0.00  0.00    +0.290 C 
ATOM     17  OXT LIG    1       -1.017   2.165   0.830  0.00  0.00    -0.253 OA
BRANCH  16  18
ATOM     18  O   LIG    1       -0.425   2.005  -1.292  0.00  0.00    -0.482 OA
ATOM     19  H   LIG    1       -0.702   2.883  -1.467  0.00  0.00    +0.295 HD
ENDBRANCH  16  18
ENDBRANCH  11  16
ENDBRANCH   1  11
TORSDOF 7
