REMARK  Name = DB15360
REMARK                            x       y       z     vdW  Elec       q    Type
REMARK                         _______ _______ _______ _____ _____    ______ ____
ROOT
ATOM      1  C   LIG    1        1.444  -0.001  -0.002  0.00  0.00    +0.135 C 
ATOM      2  C   LIG    1        2.056   0.139  -1.444  0.00  0.00    +0.019 C 
ATOM      3  C   LIG    1        3.600   0.154  -1.551  0.00  0.00    -0.076 C 
ATOM      4  N   LIG    1        4.187  -1.096  -0.857  0.00  0.00    +0.380 N 
ATOM      5  H   LIG    1        3.837  -1.917  -1.330  0.00  0.00    -0.082 HD
ATOM      6  C   LIG    1        3.724  -1.179   0.614  0.00  0.00    -0.076 C 
ATOM      7  C   LIG    1        2.182  -1.234   0.641  0.00  0.00    +0.019 C 
ENDROOT
BRANCH   1   9
ATOM      8  C   LIG    1       -0.894   0.883  -0.510  0.00  0.00    +0.220 C 
ATOM      9  N   LIG    1       -0.070  -0.109  -0.025  0.00  0.00    -0.255 N 
ATOM     10  O   LIG    1       -0.459   1.915  -1.025  0.00  0.00    -0.275 OA
BRANCH   9  11
ATOM     11  C   LIG    1       -0.631  -1.389   0.173  0.00  0.00    +0.037 A 
ATOM     12  C   LIG    1       -0.929  -1.813   1.472  0.00  0.00    +0.023 A 
ATOM     13  C   LIG    1       -1.462  -3.083   1.677  0.00  0.00    +0.002 A 
ATOM     14  C   LIG    1       -1.688  -3.922   0.587  0.00  0.00    +0.000 A 
ATOM     15  C   LIG    1       -1.384  -3.506  -0.708  0.00  0.00    +0.002 A 
ATOM     16  C   LIG    1       -0.851  -2.238  -0.919  0.00  0.00    +0.023 A 
ENDBRANCH   9  11
BRANCH   8  18
ATOM     17  C   LIG    1       -3.130   0.527  -1.708  0.00  0.00    +0.013 C 
ATOM     18  C   LIG    1       -2.429   0.787  -0.364  0.00  0.00    +0.093 C 
ENDBRANCH   8  18
ENDBRANCH   1   9
BRANCH   1  19
ATOM     19  C   LIG    1        1.794   1.227   0.918  0.00  0.00    +0.331 C 
ATOM     20  O   LIG    1        2.543   2.137   0.553  0.00  0.00    -0.248 OA
BRANCH  19  21
ATOM     21  O   LIG    1        1.193   1.168   2.135  0.00  0.00    -0.466 OA
ATOM     22  C   LIG    1        1.384   2.202   3.089  0.00  0.00    +0.280 C 
ENDBRANCH  19  21
ENDBRANCH   1  19
BRANCH   4  23
ATOM     23  C   LIG    1        5.735  -1.114  -0.910  0.00  0.00    -0.074 C 
BRANCH  23  24
ATOM     24  C   LIG    1        6.250  -1.310  -2.350  0.00  0.00    +0.016 C 
BRANCH  24  25
ATOM     25  C   LIG    1        7.756  -1.516  -2.391  0.00  0.00    -0.049 A 
ATOM     26  C   LIG    1        8.286  -2.808  -2.326  0.00  0.00    +0.003 A 
ATOM     27  C   LIG    1        9.665  -2.996  -2.357  0.00  0.00    +0.000 A 
ATOM     28  C   LIG    1       10.510  -1.892  -2.453  0.00  0.00    +0.000 A 
ATOM     29  C   LIG    1        9.988  -0.602  -2.516  0.00  0.00    +0.000 A 
ATOM     30  C   LIG    1        8.609  -0.413  -2.485  0.00  0.00    +0.003 A 
ENDBRANCH  24  25
ENDBRANCH  23  24
ENDBRANCH   4  23
TORSDOF 8
