REMARK  Name = DB15275
REMARK                            x       y       z     vdW  Elec       q    Type
REMARK                         _______ _______ _______ _____ _____    ______ ____
ROOT
ATOM      1  C   LIG    1        2.118  -1.446  -0.174  0.00  0.00    +0.031 A 
ATOM      2  C   LIG    1        3.512  -1.393  -0.240  0.00  0.00    +0.069 A 
ATOM      3  C   LIG    1        4.284  -2.556  -0.188  0.00  0.00    +0.133 A 
ATOM      4  O   LIG    1        5.650  -2.462  -0.342  0.00  0.00    -0.489 OA
ATOM      5  C   LIG    1        6.500  -2.804   0.757  0.00  0.00    +0.250 C 
ATOM      6  C   LIG    1        6.137  -4.062   1.573  0.00  0.00    +0.164 C 
ATOM      7  N   LIG    1        5.614  -5.130   0.736  0.00  0.00    -0.325 N 
ATOM      8  C   LIG    1        6.033  -6.428   0.618  0.00  0.00    +0.131 A 
ATOM      9  C   LIG    1        5.111  -7.067  -0.208  0.00  0.00    +0.149 A 
ATOM     10  N   LIG    1        4.154  -6.217  -0.553  0.00  0.00    -0.212 NA
ATOM     11  C   LIG    1        4.447  -5.065   0.009  0.00  0.00    +0.147 A 
ATOM     12  C   LIG    1        3.646  -3.806  -0.068  0.00  0.00    +0.059 A 
ATOM     13  C   LIG    1        2.250  -3.860  -0.010  0.00  0.00    +0.017 A 
ATOM     14  C   LIG    1        1.492  -2.692  -0.056  0.00  0.00    +0.024 A 
ENDROOT
BRANCH   9  15
ATOM     15  N   LIG    1        5.098  -8.398  -0.619  0.00  0.00    -0.208 N 
ATOM     16  C   LIG    1        6.151  -9.307  -0.460  0.00  0.00    +0.409 C 
ATOM     17  O   LIG    1        7.214  -9.217   0.153  0.00  0.00    -0.226 OA
ATOM     18  O   LIG    1        5.821 -10.405  -1.173  0.00  0.00    -0.448 OA
ATOM     19  C   LIG    1        4.606 -10.267  -1.878  0.00  0.00    +0.262 C 
ATOM     20  C   LIG    1        3.950  -9.068  -1.218  0.00  0.00    +0.189 C 
BRANCH  20  21
ATOM     21  C   LIG    1        2.879  -9.470  -0.176  0.00  0.00    +0.365 C 
ATOM     22  F   LIG    1        2.364  -8.434   0.485  0.00  0.00    -0.207 F 
ATOM     23  F   LIG    1        1.874 -10.158  -0.719  0.00  0.00    -0.207 F 
ENDBRANCH  20  21
ENDBRANCH   9  15
BRANCH   1  24
ATOM     24  N   LIG    1        1.409  -0.233  -0.227  0.00  0.00    -0.333 N 
ATOM     25  H   LIG    1        1.971   0.478   0.218  0.00  0.00    +0.147 HD
BRANCH  24  27
ATOM     26  C   LIG    1       -0.345   1.485   0.151  0.00  0.00    +0.037 C 
ATOM     27  C   LIG    1       -0.007  -0.012   0.004  0.00  0.00    +0.153 C 
BRANCH  27  28
ATOM     28  C   LIG    1       -0.842  -0.623  -1.149  0.00  0.00    +0.230 C 
ATOM     29  O   LIG    1       -0.502  -0.477  -2.323  0.00  0.00    -0.274 OA
ATOM     30  N   LIG    1       -1.940  -1.296  -0.794  0.00  0.00    -0.328 N 
ATOM     31  H   LIG    1       -2.525  -1.716  -1.502  0.00  0.00    +0.145 HD
ATOM     32  H   LIG    1       -2.189  -1.394   0.179  0.00  0.00    +0.145 HD
ENDBRANCH  27  28
ENDBRANCH  24  27
ENDBRANCH   1  24
TORSDOF 5
