REMARK  Name = DB15384
REMARK                            x       y       z     vdW  Elec       q    Type
REMARK                         _______ _______ _______ _____ _____    ______ ____
ROOT
ATOM      1  C   LIG    1        1.815   0.106   0.156  0.00  0.00    +0.205 C 
ATOM      2  C   LIG    1        2.250  -1.373   0.106  0.00  0.00    -0.029 C 
ATOM      3  C   LIG    1        1.207  -2.389  -0.366  0.00  0.00    +0.043 C 
ATOM      4  C   LIG    1        3.512  -1.711   0.509  0.00  0.00    -0.011 C 
ATOM      5  C   LIG    1        4.538  -0.571   0.797  0.00  0.00    +0.023 C 
ATOM      6  C   LIG    1        5.969  -1.015   1.255  0.00  0.00    +0.018 C 
ATOM      7  C   LIG    1        4.760   0.229  -0.539  0.00  0.00    +0.018 C 
ATOM      8  C   LIG    1        3.828   0.307   1.895  0.00  0.00    +0.116 C 
ATOM      9  C   LIG    1        3.686  -0.423   3.331  0.00  0.00    +0.217 C 
ATOM     10  C   LIG    1        2.698  -1.680   3.499  0.00  0.00    +0.097 C 
ATOM     11  C   LIG    1        3.380  -3.130   3.490  0.00  0.00    +0.066 C 
ATOM     12  C   LIG    1        4.354  -3.388   2.271  0.00  0.00    +0.187 C 
ATOM     13  O   LIG    1        5.500  -3.814   2.456  0.00  0.00    -0.292 OA
ATOM     14  C   LIG    1        4.208  -3.376   4.799  0.00  0.00    +0.022 C 
ATOM     15  C   LIG    1        2.253  -4.224   3.374  0.00  0.00    +0.131 C 
ATOM     16  C   LIG    1        1.191  -4.217   4.495  0.00  0.00    +0.068 C 
ATOM     17  C   LIG    1        0.825  -2.851   5.101  0.00  0.00    +0.167 C 
ATOM     18  O   LIG    1        1.425  -2.690   6.454  0.00  0.00    -0.368 OA
ATOM     19  C   LIG    1        1.990  -1.370   6.064  0.00  0.00    +0.211 C 
ATOM     20  C   LIG    1        1.547  -1.571   4.596  0.00  0.00    +0.170 C 
ATOM     21  C   LIG    1        3.878  -3.171   0.805  0.00  0.00    +0.270 C 
ATOM     22  C   LIG    1        2.411   0.804   1.420  0.00  0.00    +0.088 C 
ENDROOT
BRANCH  15  23
ATOM     23  O   LIG    1        2.727  -5.560   3.252  0.00  0.00    -0.391 OA
ATOM     24  H   LIG    1        3.094  -5.833   4.096  0.00  0.00    +0.210 HD
ENDBRANCH  15  23
BRANCH   8  25
ATOM     25  O   LIG    1        4.627   1.456   2.163  0.00  0.00    -0.384 OA
ATOM     26  H   LIG    1        5.457   1.167   2.552  0.00  0.00    +0.210 HD
ENDBRANCH   8  25
BRANCH   1  27
ATOM     27  O   LIG    1        0.395   0.284   0.195  0.00  0.00    -0.455 OA
BRANCH  27  28
ATOM     28  C   LIG    1       -0.333   0.573  -0.915  0.00  0.00    +0.339 C 
ATOM     29  O   LIG    1        0.105   0.604  -2.069  0.00  0.00    -0.248 OA
BRANCH  28  30
ATOM     30  C   LIG    1       -1.809   0.870  -0.571  0.00  0.00    +0.248 C 
BRANCH  30  31
ATOM     31  O   LIG    1       -2.586   0.837  -1.761  0.00  0.00    -0.379 OA
ATOM     32  H   LIG    1       -2.485  -0.025  -2.171  0.00  0.00    +0.211 HD
ENDBRANCH  30  31
BRANCH  30  33
ATOM     33  C   LIG    1       -1.985   2.223   0.195  0.00  0.00    +0.152 C 
BRANCH  33  34
ATOM     34  C   LIG    1       -3.318   2.348   0.939  0.00  0.00    +0.013 A 
ATOM     35  S   LIG    1       -3.614   3.675   2.038  0.00  0.00    -0.100 S 
ATOM     36  C   LIG    1       -5.194   3.094   2.431  0.00  0.00    +0.045 A 
ATOM     37  C   LIG    1       -5.487   1.927   1.752  0.00  0.00    +0.008 A 
ATOM     38  C   LIG    1       -4.439   1.512   0.926  0.00  0.00    +0.013 A 
ENDBRANCH  33  34
BRANCH  33  40
ATOM     39  C   LIG    1       -2.442   4.066  -1.498  0.00  0.00    +0.401 C 
ATOM     40  N   LIG    1       -1.619   3.425  -0.579  0.00  0.00    -0.271 N 
ATOM     41  H   LIG    1       -0.679   3.775  -0.472  0.00  0.00    +0.153 HD
ATOM     42  O   LIG    1       -3.604   3.764  -1.779  0.00  0.00    -0.226 OA
BRANCH  39  43
ATOM     43  O   LIG    1       -1.759   5.097  -2.045  0.00  0.00    -0.448 OA
BRANCH  43  45
ATOM     44  C   LIG    1       -2.292   5.216  -4.433  0.00  0.00    +0.052 C 
ATOM     45  C   LIG    1       -2.323   5.924  -3.063  0.00  0.00    +0.172 C 
ATOM     46  C   LIG    1       -1.531   7.240  -3.085  0.00  0.00    +0.052 C 
ENDBRANCH  43  45
ENDBRANCH  39  43
ENDBRANCH  33  40
ENDBRANCH  30  33
ENDBRANCH  28  30
ENDBRANCH  27  28
ENDBRANCH   1  27
BRANCH  20  47
ATOM     47  O   LIG    1        0.621  -0.515   4.285  0.00  0.00    -0.453 OA
BRANCH  47  48
ATOM     48  C   LIG    1       -0.397  -0.642   3.397  0.00  0.00    +0.305 C 
ATOM     49  O   LIG    1       -0.627  -1.618   2.683  0.00  0.00    -0.251 OA
ATOM     50  C   LIG    1       -1.281   0.595   3.361  0.00  0.00    +0.136 C 
ENDBRANCH  47  48
ENDBRANCH  20  47
BRANCH   9  51
ATOM     51  O   LIG    1        3.288   0.563   4.303  0.00  0.00    -0.454 OA
BRANCH  51  52
ATOM     52  C   LIG    1        4.145   1.129   5.202  0.00  0.00    +0.340 C 
ATOM     53  O   LIG    1        5.343   0.845   5.273  0.00  0.00    -0.245 OA
BRANCH  52  54
ATOM     54  C   LIG    1        3.471   2.119   6.106  0.00  0.00    +0.059 A 
ATOM     55  C   LIG    1        4.216   2.738   7.121  0.00  0.00    +0.015 A 
ATOM     56  C   LIG    1        3.617   3.660   7.976  0.00  0.00    +0.001 A 
ATOM     57  C   LIG    1        2.269   3.969   7.822  0.00  0.00    +0.000 A 
ATOM     58  C   LIG    1        1.514   3.366   6.821  0.00  0.00    +0.001 A 
ATOM     59  C   LIG    1        2.111   2.445   5.965  0.00  0.00    +0.015 A 
ENDBRANCH  52  54
ENDBRANCH  51  52
ENDBRANCH   9  51
BRANCH  21  60
ATOM     60  O   LIG    1        4.840  -3.622  -0.157  0.00  0.00    -0.449 OA
BRANCH  60  61
ATOM     61  C   LIG    1        4.869  -4.901  -0.607  0.00  0.00    +0.311 C 
ATOM     62  O   LIG    1        4.081  -5.794  -0.283  0.00  0.00    -0.251 OA
BRANCH  61  63
ATOM     63  C   LIG    1        6.033  -5.131  -1.593  0.00  0.00    +0.098 C 
ATOM     64  C   LIG    1        7.294  -5.589  -0.822  0.00  0.00    +0.015 C 
ATOM     65  C   LIG    1        7.456  -7.076  -1.146  0.00  0.00    +0.001 C 
ATOM     66  C   LIG    1        6.944  -7.196  -2.579  0.00  0.00    +0.001 C 
ATOM     67  C   LIG    1        5.746  -6.241  -2.639  0.00  0.00    +0.015 C 
ENDBRANCH  61  63
ENDBRANCH  60  61
ENDBRANCH  21  60
TORSDOF 19
