REMARK  Name = DB15494
REMARK                            x       y       z     vdW  Elec       q    Type
REMARK                         _______ _______ _______ _____ _____    ______ ____
ROOT
ATOM      1  CA  CYS A  2        1.189  -0.107   0.781  0.00  0.00    +0.169 C 
ATOM      2  C   CYS A  2        1.728  -0.605  -0.580  0.00  0.00    +0.235 C 
ATOM      3  O   CYS A  2        2.902  -0.969  -0.651  0.00  0.00    -0.274 OA
ATOM      4  N   TYR A  3        0.875  -0.592  -1.624  0.00  0.00    -0.302 N 
ATOM      5  H   TYR A  3       -0.064  -0.261  -1.455  0.00  0.00    +0.150 HD
ATOM      6  CA  TYR A  3        1.130  -1.003  -3.009  0.00  0.00    +0.163 C 
ATOM      7  C   TYR A  3        1.338  -2.524  -3.124  0.00  0.00    +0.234 C 
ATOM      8  O   TYR A  3        0.357  -3.233  -3.351  0.00  0.00    -0.274 OA
ATOM      9  N   TRP A  4        2.586  -2.991  -2.922  0.00  0.00    -0.302 N 
ATOM     10  H   TRP A  4        3.323  -2.324  -2.744  0.00  0.00    +0.150 HD
ATOM     11  CA  TRP A  4        2.977  -4.399  -2.781  0.00  0.00    +0.163 C 
ATOM     12  C   TRP A  4        2.270  -5.048  -1.573  0.00  0.00    +0.234 C 
ATOM     13  O   TRP A  4        2.489  -4.599  -0.449  0.00  0.00    -0.274 OA
ATOM     14  N   LYS A  5        1.439  -6.075  -1.825  0.00  0.00    -0.302 N 
ATOM     15  H   LYS A  5        1.319  -6.383  -2.779  0.00  0.00    +0.150 HD
ATOM     16  CA  LYS A  5        0.658  -6.803  -0.825  0.00  0.00    +0.159 C 
ATOM     17  C   LYS A  5        1.549  -7.645   0.105  0.00  0.00    +0.234 C 
ATOM     18  O   LYS A  5        2.578  -8.160  -0.333  0.00  0.00    -0.274 OA
ATOM     19  N   THR A  6        1.117  -7.750   1.374  0.00  0.00    -0.300 N 
ATOM     20  H   THR A  6        0.243  -7.310   1.621  0.00  0.00    +0.150 HD
ATOM     21  CA  THR A  6        1.829  -8.386   2.491  0.00  0.00    +0.187 C 
ATOM     22  C   THR A  6        3.161  -7.659   2.803  0.00  0.00    +0.237 C 
ATOM     23  O   THR A  6        4.237  -8.258   2.803  0.00  0.00    -0.274 OA
ATOM     24  N   CYS A  7        3.042  -6.339   3.019  0.00  0.00    -0.302 N 
ATOM     25  H   CYS A  7        2.126  -5.917   2.980  0.00  0.00    +0.150 HD
ATOM     26  CA  CYS A  7        4.134  -5.430   3.365  0.00  0.00    +0.169 C 
ATOM     27  CB  CYS A  7        3.717  -3.999   2.974  0.00  0.00    +0.112 C 
ATOM     28  SG  CYS A  7        2.145  -3.405   3.672  0.00  0.00    -0.091 S 
ATOM     29  SG  CYS A  2        1.154  -2.660   2.056  0.00  0.00    -0.091 S 
ATOM     30  CB  CYS A  2        1.714  -0.936   1.972  0.00  0.00    +0.112 C 
ENDROOT
BRANCH  26  31
ATOM     31  C   CYS A  7        4.516  -5.528   4.852  0.00  0.00    +0.235 C 
ATOM     32  O   CYS A  7        3.671  -5.848   5.689  0.00  0.00    -0.274 OA
ATOM     33  N   THR A  8        5.794  -5.231   5.141  0.00  0.00    -0.306 N 
ATOM     34  H   THR A  8        6.421  -5.002   4.384  0.00  0.00    +0.149 HD
BRANCH  33  35
ATOM     35  CA  THR A  8        6.390  -5.269   6.486  0.00  0.00    +0.126 C 
BRANCH  35  36
ATOM     36  CB  THR A  8        7.944  -5.362   6.402  0.00  0.00    +0.134 C 
ATOM     37  CG2 THR A  8        8.632  -5.628   7.755  0.00  0.00    +0.039 C 
BRANCH  36  38
ATOM     38  OG1 THR A  8        8.342  -6.403   5.524  0.00  0.00    -0.390 OA
ATOM     39  HG1 THR A  8        8.003  -7.235   5.861  0.00  0.00    +0.210 HD
ENDBRANCH  36  38
ENDBRANCH  35  36
BRANCH  35  40
ATOM     40  C   THR A  8        5.908  -4.075   7.357  0.00  0.00    +0.180 C 
BRANCH  40  41
ATOM     41  O   THR A  8        6.233  -2.821   6.788  0.00  0.00    -0.393 OA
ATOM     42  H   THR A  8        5.715  -2.708   5.988  0.00  0.00    +0.209 HD
ENDBRANCH  40  41
ENDBRANCH  35  40
ENDBRANCH  33  35
ENDBRANCH  26  31
BRANCH   1  44
ATOM     43  C   PHE A  1       -1.055   0.971   0.525  0.00  0.00    +0.234 C 
ATOM     44  N   CYS A  2       -0.275  -0.073   0.850  0.00  0.00    -0.302 N 
ATOM     45  H   CYS A  2       -0.711  -0.927   1.168  0.00  0.00    +0.150 HD
ATOM     46  O   PHE A  1       -0.624   2.057   0.140  0.00  0.00    -0.274 OA
BRANCH  43  47
ATOM     47  CA  PHE A  1       -2.574   0.723   0.649  0.00  0.00    +0.163 C 
BRANCH  47  49
ATOM     48  C   UNK A  0       -3.654   2.804  -0.320  0.00  0.00    +0.228 C 
ATOM     49  N   PHE A  1       -3.383   1.484  -0.314  0.00  0.00    -0.303 N 
ATOM     50  H   PHE A  1       -3.765   0.928  -1.065  0.00  0.00    +0.149 HD
ATOM     51  O   UNK A  0       -3.255   3.587   0.543  0.00  0.00    -0.274 OA
BRANCH  48  52
ATOM     52  C   UNK A  0       -4.534   3.309  -1.475  0.00  0.00    +0.180 C 
BRANCH  52  62
ATOM     53  N   UNK A  0       -2.265   7.602  -2.631  0.00  0.00    -0.290 NA
ATOM     54  C   UNK A  0       -3.402   8.414  -3.106  0.00  0.00    +0.100 C 
ATOM     55  C   UNK A  0       -3.570   8.418  -4.652  0.00  0.00    +0.100 C 
ATOM     56  N   UNK A  0       -4.958   8.543  -5.143  0.00  0.00    -0.290 NA
ATOM     57  C   UNK A  0       -5.871   7.472  -4.712  0.00  0.00    +0.100 C 
ATOM     58  C   UNK A  0       -5.442   6.042  -5.131  0.00  0.00    +0.100 C 
ATOM     59  N   UNK A  0       -6.053   5.026  -4.261  0.00  0.00    -0.290 NA
ATOM     60  C   UNK A  0       -5.372   3.729  -4.407  0.00  0.00    +0.100 C 
ATOM     61  C   UNK A  0       -3.924   3.649  -3.842  0.00  0.00    +0.100 C 
ATOM     62  N   UNK A  0       -3.706   4.036  -2.435  0.00  0.00    -0.292 NA
ATOM     63  C   UNK A  0       -3.612   5.482  -2.170  0.00  0.00    +0.100 C 
ATOM     64  C   UNK A  0       -2.409   6.156  -2.882  0.00  0.00    +0.100 C 
BRANCH  53  65
ATOM     65  C   UNK A  0       -1.963   7.866  -1.208  0.00  0.00    +0.205 C 
BRANCH  65  66
ATOM     66  C   UNK A  0       -1.266   9.222  -0.910  0.00  0.00    +0.319 C 
ATOM     67  O   UNK A  0       -1.287   9.592   0.286  0.00  0.00    -0.250 OA
BRANCH  66  68
ATOM     68  O   UNK A  0       -0.688   9.857  -1.825  0.00  0.00    -0.480 OA
ATOM     69  H   UNK A  0       -0.705   9.531  -2.703  0.00  0.00    +0.295 HD
ENDBRANCH  66  68
ENDBRANCH  65  66
ENDBRANCH  53  65
BRANCH  56  70
ATOM     70  C   UNK A  0       -5.555   9.859  -4.824  0.00  0.00    +0.205 C 
BRANCH  70  71
ATOM     71  C   UNK A  0       -5.010  11.059  -5.645  0.00  0.00    +0.319 C 
ATOM     72  O   UNK A  0       -5.234  12.192  -5.164  0.00  0.00    -0.250 OA
BRANCH  71  73
ATOM     73  O   UNK A  0       -4.437  10.868  -6.745  0.00  0.00    -0.480 OA
ATOM     74  H   UNK A  0       -4.111  11.596  -7.236  0.00  0.00    +0.295 HD
ENDBRANCH  71  73
ENDBRANCH  70  71
ENDBRANCH  56  70
BRANCH  59  75
ATOM     75  C   UNK A  0       -7.500   4.897  -4.541  0.00  0.00    +0.205 C 
BRANCH  75  76
ATOM     76  C   UNK A  0       -8.334   4.186  -3.441  0.00  0.00    +0.319 C 
ATOM     77  O   UNK A  0       -7.892   4.091  -2.271  0.00  0.00    -0.250 OA
BRANCH  76  78
ATOM     78  O   UNK A  0       -9.459   3.770  -3.797  0.00  0.00    -0.480 OA
ATOM     79  H   UNK A  0      -10.012   3.332  -3.181  0.00  0.00    +0.295 HD
ENDBRANCH  76  78
ENDBRANCH  75  76
ENDBRANCH  59  75
ENDBRANCH  52  62
ENDBRANCH  48  52
ENDBRANCH  47  49
BRANCH  47  80
ATOM     80  CB  PHE A  1       -3.133   0.850   2.095  0.00  0.00    +0.067 C 
BRANCH  80  81
ATOM     81  CG  PHE A  1       -2.371   0.114   3.187  0.00  0.00    -0.045 A 
ATOM     82  CD2 PHE A  1       -1.407   0.791   3.966  0.00  0.00    +0.004 A 
ATOM     83  CE2 PHE A  1       -0.650   0.090   4.896  0.00  0.00    +0.000 A 
ATOM     84  CZ  PHE A  1       -0.816  -1.281   5.044  0.00  0.00    +0.000 A 
ATOM     85  CE1 PHE A  1       -1.734  -1.966   4.258  0.00  0.00    +0.000 A 
ATOM     86  CD1 PHE A  1       -2.503  -1.284   3.324  0.00  0.00    +0.004 A 
ENDBRANCH  80  81
ENDBRANCH  47  80
ENDBRANCH  43  47
ENDBRANCH   1  44
BRANCH  21  87
ATOM     87  CB  THR A  6        2.033  -9.922   2.307  0.00  0.00    +0.141 C 
ATOM     88  CG2 THR A  6        2.498 -10.668   3.575  0.00  0.00    +0.040 C 
BRANCH  87  89
ATOM     89  OG1 THR A  6        0.803 -10.512   1.928  0.00  0.00    -0.390 OA
ATOM     90  HG1 THR A  6        0.213 -10.504   2.685  0.00  0.00    +0.210 HD
ENDBRANCH  87  89
ENDBRANCH  21  87
BRANCH  11  91
ATOM     91  CB  TRP A  4        2.808  -5.179  -4.112  0.00  0.00    +0.069 C 
BRANCH  91  92
ATOM     92  CG  TRP A  4        3.596  -4.704  -5.298  0.00  0.00    -0.020 A 
ATOM     93  CD1 TRP A  4        4.911  -4.386  -5.295  0.00  0.00    +0.087 A 
ATOM     94  NE1 TRP A  4        5.320  -4.091  -6.579  0.00  0.00    -0.360 N 
ATOM     95  HE1 TRP A  4        6.271  -3.831  -6.801  0.00  0.00    +0.165 HD
ATOM     96  CE2 TRP A  4        4.289  -4.219  -7.485  0.00  0.00    +0.047 A 
ATOM     97  CZ2 TRP A  4        4.203  -4.052  -8.878  0.00  0.00    +0.026 A 
ATOM     98  CH2 TRP A  4        2.969  -4.263  -9.520  0.00  0.00    +0.002 A 
ATOM     99  CZ3 TRP A  4        1.841  -4.639  -8.766  0.00  0.00    +0.001 A 
ATOM    100  CE3 TRP A  4        1.941  -4.810  -7.370  0.00  0.00    +0.010 A 
ATOM    101  CD2 TRP A  4        3.165  -4.604  -6.690  0.00  0.00    +0.003 A 
ENDBRANCH  91  92
ENDBRANCH  11  91
BRANCH   6 102
ATOM    102  CB  TYR A  3        2.236  -0.134  -3.661  0.00  0.00    +0.067 C 
BRANCH 102 103
ATOM    103  CG  TYR A  3        2.486  -0.369  -5.143  0.00  0.00    -0.045 A 
ATOM    104  CD2 TYR A  3        1.435  -0.217  -6.072  0.00  0.00    +0.007 A 
ATOM    105  CE2 TYR A  3        1.673  -0.395  -7.449  0.00  0.00    +0.045 A 
ATOM    106  CZ  TYR A  3        2.967  -0.714  -7.903  0.00  0.00    +0.117 A 
ATOM    107  CE1 TYR A  3        4.018  -0.868  -6.979  0.00  0.00    +0.045 A 
ATOM    108  CD1 TYR A  3        3.777  -0.703  -5.602  0.00  0.00    +0.007 A 
BRANCH 106 109
ATOM    109  OH  TYR A  3        3.203  -0.868  -9.238  0.00  0.00    -0.507 OA
ATOM    110  HH  TYR A  3        2.419  -0.739  -9.775  0.00  0.00    +0.292 HD
ENDBRANCH 106 109
ENDBRANCH 102 103
ENDBRANCH   6 102
BRANCH  16 111
ATOM    111  CB  LYS A  5       -0.383  -7.683  -1.546  0.00  0.00    +0.032 C 
BRANCH 111 112
ATOM    112  CG  LYS A  5       -1.419  -6.869  -2.344  0.00  0.00    +0.003 C 
BRANCH 112 113
ATOM    113  CD  LYS A  5       -2.456  -7.757  -3.050  0.00  0.00    +0.015 C 
BRANCH 113 114
ATOM    114  CE  LYS A  5       -3.540  -6.961  -3.795  0.00  0.00    +0.077 C 
BRANCH 114 115
ATOM    115  NZ  LYS A  5       -2.982  -6.265  -4.939  0.00  0.00    -0.330 NA
ATOM    116  HZ1 LYS A  5       -2.313  -5.576  -4.624  0.00  0.00    +0.118 HD
ATOM    117  HZ2 LYS A  5       -3.712  -5.757  -5.418  0.00  0.00    +0.118 HD
ENDBRANCH 114 115
ENDBRANCH 113 114
ENDBRANCH 112 113
ENDBRANCH 111 112
ENDBRANCH  16 111
TORSDOF 34
