REMARK  Name = DB15450
REMARK                            x       y       z     vdW  Elec       q    Type
REMARK                         _______ _______ _______ _____ _____    ______ ____
ROOT
ATOM      1  N   LIG    1        1.611  -0.255   0.196  0.00  0.00    -0.286 N 
ATOM      2  C   LIG    1        2.490   0.610   0.789  0.00  0.00    +0.249 C 
ATOM      3  O   LIG    1        2.133   1.525   1.532  0.00  0.00    -0.270 OA
ENDROOT
BRANCH   2   4
ATOM      4  C   LIG    1        3.970   0.471   0.513  0.00  0.00    +0.056 A 
ATOM      5  C   LIG    1        4.458   0.230  -0.775  0.00  0.00    +0.124 A 
ATOM      6  N   LIG    1        5.774   0.124  -1.081  0.00  0.00    -0.254 NA
ATOM      7  C   LIG    1        6.684   0.275  -0.081  0.00  0.00    +0.071 A 
ATOM      8  C   LIG    1        8.063   0.164  -0.386  0.00  0.00    +0.028 A 
ATOM      9  C   LIG    1        9.016   0.320   0.619  0.00  0.00    +0.002 A 
ATOM     10  C   LIG    1        8.629   0.586   1.929  0.00  0.00    +0.001 A 
ATOM     11  C   LIG    1        7.281   0.701   2.262  0.00  0.00    +0.010 A 
ATOM     12  C   LIG    1        6.288   0.546   1.264  0.00  0.00    +0.001 A 
ATOM     13  C   LIG    1        4.902   0.651   1.541  0.00  0.00    +0.024 A 
ENDBRANCH   2   4
BRANCH   1  15
ATOM     14  C   LIG    1       -0.325   1.466  -0.003  0.00  0.00    +0.033 C 
ATOM     15  C   LIG    1        0.137  -0.007   0.126  0.00  0.00    +0.104 C 
BRANCH  15  16
ATOM     16  C   LIG    1       -0.695  -0.748   1.178  0.00  0.00    -0.027 A 
ATOM     17  C   LIG    1       -0.279  -0.824   2.513  0.00  0.00    +0.008 A 
ATOM     18  C   LIG    1       -1.040  -1.528   3.442  0.00  0.00    +0.038 A 
ATOM     19  C   LIG    1       -2.214  -2.160   3.039  0.00  0.00    +0.123 A 
ATOM     20  F   LIG    1       -2.950  -2.846   3.942  0.00  0.00    -0.205 F 
ATOM     21  C   LIG    1       -2.634  -2.091   1.713  0.00  0.00    +0.038 A 
ATOM     22  C   LIG    1       -1.876  -1.384   0.784  0.00  0.00    +0.008 A 
ENDBRANCH  15  16
ENDBRANCH   1  15
BRANCH   1  23
ATOM     23  C   LIG    1        2.009  -1.668  -0.037  0.00  0.00    +0.143 C 
BRANCH  23  24
ATOM     24  C   LIG    1        1.388  -2.349  -1.252  0.00  0.00    -0.029 A 
ATOM     25  C   LIG    1        1.890  -2.118  -2.533  0.00  0.00    +0.005 A 
ATOM     26  C   LIG    1        1.320  -2.759  -3.630  0.00  0.00    +0.001 A 
ATOM     27  C   LIG    1        0.252  -3.636  -3.451  0.00  0.00    +0.015 A 
ATOM     28  C   LIG    1       -0.270  -3.905  -2.170  0.00  0.00    +0.059 A 
ATOM     29  C   LIG    1        0.337  -3.253  -1.078  0.00  0.00    +0.020 A 
BRANCH  28  30
ATOM     30  C   LIG    1       -1.435  -4.852  -1.972  0.00  0.00    +0.337 C 
ATOM     31  O   LIG    1       -1.903  -5.450  -2.971  0.00  0.00    -0.245 OA
BRANCH  30  32
ATOM     32  O   LIG    1       -1.901  -5.006  -0.818  0.00  0.00    -0.477 OA
ATOM     33  H   LIG    1       -2.622  -5.587  -0.677  0.00  0.00    +0.295 HD
ENDBRANCH  30  32
ENDBRANCH  28  30
ENDBRANCH  23  24
ENDBRANCH   1  23
TORSDOF 7
