REMARK  Name = DB15411
REMARK                            x       y       z     vdW  Elec       q    Type
REMARK                         _______ _______ _______ _____ _____    ______ ____
ROOT
ATOM      1  C   LIG    1        1.231   0.026  -0.029  0.00  0.00    +0.147 A 
ATOM      2  N   LIG    1        2.017   1.164   0.109  0.00  0.00    -0.318 N 
ATOM      3  C   LIG    1        3.301   0.656   0.163  0.00  0.00    +0.200 A 
ATOM      4  N   LIG    1        3.378  -0.646   0.044  0.00  0.00    -0.243 NA
ATOM      5  C   LIG    1        2.126  -1.039  -0.075  0.00  0.00    +0.145 A 
ENDROOT
BRANCH   1   6
ATOM      6  C   LIG    1       -0.237   0.058  -0.084  0.00  0.00    +0.358 C 
ATOM      7  O   LIG    1       -0.936   1.071  -0.022  0.00  0.00    -0.243 OA
BRANCH   6   8
ATOM      8  O   LIG    1       -0.724  -1.208  -0.201  0.00  0.00    -0.442 OA
BRANCH   8   9
ATOM      9  C   LIG    1       -2.129  -1.487  -0.279  0.00  0.00    +0.210 C 
ATOM     10  C   LIG    1       -2.610  -2.651   0.568  0.00  0.00    +0.064 C 
ATOM     11  C   LIG    1       -2.965  -1.243   0.971  0.00  0.00    +0.064 C 
BRANCH   9  12
ATOM     12  C   LIG    1       -2.772  -1.287  -1.676  0.00  0.00    +0.351 C 
ATOM     13  O   LIG    1       -3.990  -1.395  -1.842  0.00  0.00    -0.246 OA
BRANCH  12  15
ATOM     14  C   LIG    1       -2.303  -0.789  -3.987  0.00  0.00    +0.280 C 
ATOM     15  O   LIG    1       -1.876  -1.002  -2.650  0.00  0.00    -0.465 OA
ENDBRANCH  12  15
ENDBRANCH   9  12
ENDBRANCH   8   9
ENDBRANCH   6   8
ENDBRANCH   1   6
BRANCH   2  16
ATOM     16  C   LIG    1        1.622   2.586   0.233  0.00  0.00    +0.116 C 
ATOM     17  C   LIG    1        2.748   3.541  -0.224  0.00  0.00    +0.036 C 
BRANCH  16  18
ATOM     18  C   LIG    1        1.082   2.978   1.614  0.00  0.00    -0.025 A 
ATOM     19  C   LIG    1        0.189   4.050   1.711  0.00  0.00    +0.005 A 
ATOM     20  C   LIG    1       -0.327   4.427   2.948  0.00  0.00    +0.000 A 
ATOM     21  C   LIG    1        0.050   3.730   4.093  0.00  0.00    +0.000 A 
ATOM     22  C   LIG    1        0.940   2.662   4.012  0.00  0.00    +0.000 A 
ATOM     23  C   LIG    1        1.456   2.286   2.775  0.00  0.00    +0.005 A 
ENDBRANCH  16  18
ENDBRANCH   2  16
TORSDOF 7
