REMARK  Name = DB15050
REMARK                            x       y       z     vdW  Elec       q    Type
REMARK                         _______ _______ _______ _____ _____    ______ ____
ROOT
ATOM      1  C   LIG    1       -2.060  -2.054  -5.723  0.00  0.00    +0.195 A 
ATOM      2  N   LIG    1       -1.754  -0.714  -5.791  0.00  0.00    -0.293 N 
ATOM      3  H   LIG    1       -1.881  -0.252  -6.679  0.00  0.00    +0.172 HD
ATOM      4  C   LIG    1       -1.290   0.085  -4.788  0.00  0.00    +0.280 A 
ATOM      5  O   LIG    1       -1.048   1.279  -4.960  0.00  0.00    -0.265 OA
ATOM      6  C   LIG    1       -1.125  -0.679  -3.489  0.00  0.00    +0.172 A 
ATOM      7  N   LIG    1       -0.671  -0.028  -2.386  0.00  0.00    -0.239 NA
ATOM      8  C   LIG    1       -0.543  -0.765  -1.245  0.00  0.00    +0.091 A 
ATOM      9  C   LIG    1       -0.867  -2.130  -1.222  0.00  0.00    +0.139 A 
ATOM     10  N   LIG    1       -1.320  -2.779  -2.329  0.00  0.00    -0.232 NA
ATOM     11  C   LIG    1       -1.449  -2.047  -3.467  0.00  0.00    +0.187 A 
ATOM     12  N   LIG    1       -1.918  -2.705  -4.621  0.00  0.00    -0.195 NA
ENDROOT
BRANCH   1  13
ATOM     13  N   LIG    1       -2.526  -2.694  -6.891  0.00  0.00    -0.329 N 
ATOM     14  H   LIG    1       -2.830  -2.165  -7.696  0.00  0.00    +0.145 HD
ATOM     15  H   LIG    1       -2.861  -3.646  -6.866  0.00  0.00    +0.145 HD
ENDBRANCH   1  13
BRANCH   8  16
ATOM     16  C   LIG    1       -0.034  -0.050   0.009  0.00  0.00    +0.195 C 
BRANCH  16  17
ATOM     17  O   LIG    1       -0.626   1.228   0.174  0.00  0.00    -0.383 OA
ATOM     18  H   LIG    1       -1.569   1.112   0.312  0.00  0.00    +0.210 HD
ENDBRANCH  16  17
BRANCH  16  19
ATOM     19  C   LIG    1        1.517   0.102   0.023  0.00  0.00    +0.174 C 
BRANCH  19  20
ATOM     20  O   LIG    1        2.150  -1.158  -0.134  0.00  0.00    -0.387 OA
ATOM     21  H   LIG    1        1.826  -1.564  -0.942  0.00  0.00    +0.210 HD
ENDBRANCH  19  20
BRANCH  19  22
ATOM     22  C   LIG    1        2.098   0.796   1.281  0.00  0.00    +0.190 C 
BRANCH  22  23
ATOM     23  O   LIG    1        1.725   0.143   2.480  0.00  0.00    -0.392 OA
ATOM     24  H   LIG    1        2.112   0.618   3.219  0.00  0.00    +0.210 HD
ENDBRANCH  22  23
ENDBRANCH  19  22
ENDBRANCH  16  19
ENDBRANCH   8  16
TORSDOF 7
