REMARK  Name = DB15381
REMARK                            x       y       z     vdW  Elec       q    Type
REMARK                         _______ _______ _______ _____ _____    ______ ____
ROOT
ATOM      1  C   LIG    1        3.743   0.291  -1.415  0.00  0.00    -0.076 C 
ATOM      2  C   LIG    1        4.382  -0.841  -1.786  0.00  0.00    -0.028 C 
ATOM      3  C   LIG    1        4.449   1.573  -0.984  0.00  0.00    +0.039 C 
ENDROOT
BRANCH   1   4
ATOM      4  C   LIG    1        2.221   0.367  -1.404  0.00  0.00    +0.034 C 
BRANCH   4   5
ATOM      5  C   LIG    1        1.598   0.346   0.003  0.00  0.00    +0.031 C 
BRANCH   5   7
ATOM      6  C   LIG    1       -0.691   1.496   0.273  0.00  0.00    -0.076 C 
ATOM      7  C   LIG    1        0.080   0.423  -0.009  0.00  0.00    -0.028 C 
ATOM      8  C   LIG    1       -0.142   2.879   0.607  0.00  0.00    +0.039 C 
BRANCH   6   9
ATOM      9  C   LIG    1       -2.213   1.404   0.239  0.00  0.00    +0.034 C 
BRANCH   9  10
ATOM     10  C   LIG    1       -2.883   1.552   1.616  0.00  0.00    +0.031 C 
BRANCH  10  12
ATOM     11  C   LIG    1       -5.305   2.431   1.621  0.00  0.00    -0.076 C 
ATOM     12  C   LIG    1       -4.398   1.432   1.563  0.00  0.00    -0.028 C 
ATOM     13  C   LIG    1       -4.947   3.911   1.698  0.00  0.00    +0.039 C 
BRANCH  11  14
ATOM     14  C   LIG    1       -6.801   2.138   1.577  0.00  0.00    +0.034 C 
BRANCH  14  15
ATOM     15  C   LIG    1       -7.540   2.437   2.893  0.00  0.00    +0.031 C 
BRANCH  15  18
ATOM     16  C   LIG    1      -11.191   0.936   3.189  0.00  0.00    +0.038 C 
ATOM     17  C   LIG    1       -9.683   1.068   3.317  0.00  0.00    -0.080 C 
ATOM     18  C   LIG    1       -9.030   2.143   2.826  0.00  0.00    -0.028 C 
ATOM     19  C   LIG    1       -9.013  -0.106   4.018  0.00  0.00    +0.038 C 
ENDBRANCH  15  18
ENDBRANCH  14  15
ENDBRANCH  11  14
ENDBRANCH  10  12
ENDBRANCH   9  10
ENDBRANCH   6   9
ENDBRANCH   5   7
ENDBRANCH   4   5
ENDBRANCH   1   4
BRANCH   2  20
ATOM     20  C   LIG    1        5.882  -1.065  -1.881  0.00  0.00    +0.031 C 
BRANCH  20  21
ATOM     21  C   LIG    1        6.475  -1.746  -0.635  0.00  0.00    +0.034 C 
BRANCH  21  22
ATOM     22  C   LIG    1        7.997  -1.825  -0.639  0.00  0.00    -0.076 C 
ATOM     23  C   LIG    1        8.726  -1.073   0.215  0.00  0.00    -0.023 C 
ATOM     24  C   LIG    1        8.576  -2.809  -1.650  0.00  0.00    +0.039 C 
BRANCH  23  25
ATOM     25  C   LIG    1       10.241  -0.987   0.358  0.00  0.00    +0.066 C 
BRANCH  25  26
ATOM     26  C   LIG    1       10.807   0.416   0.070  0.00  0.00    +0.010 C 
ATOM     27  C   LIG    1       10.652   1.357   1.213  0.00  0.00    +0.191 C 
ATOM     28  O   LIG    1       10.118   1.075   2.289  0.00  0.00    -0.287 OA
ATOM     29  C   LIG    1       11.203   2.732   0.953  0.00  0.00    +0.033 A 
ATOM     30  C   LIG    1       11.092   3.708   1.960  0.00  0.00    +0.012 A 
ATOM     31  C   LIG    1       11.585   4.996   1.773  0.00  0.00    +0.001 A 
ATOM     32  C   LIG    1       12.201   5.334   0.575  0.00  0.00    +0.001 A 
ATOM     33  C   LIG    1       12.322   4.383  -0.433  0.00  0.00    +0.012 A 
ATOM     34  C   LIG    1       11.829   3.077  -0.267  0.00  0.00    +0.033 A 
ATOM     35  C   LIG    1       11.988   2.092  -1.392  0.00  0.00    +0.190 C 
ATOM     36  O   LIG    1       12.555   2.407  -2.443  0.00  0.00    -0.287 OA
ATOM     37  C   LIG    1       11.417   0.751  -1.106  0.00  0.00    +0.004 C 
ATOM     38  C   LIG    1       11.517  -0.199  -2.307  0.00  0.00    +0.048 C 
ENDBRANCH  25  26
ENDBRANCH  23  25
ENDBRANCH  21  22
ENDBRANCH  20  21
ENDBRANCH   2  20
TORSDOF 14
