REMARK  Name = DB15047
REMARK                            x       y       z     vdW  Elec       q    Type
REMARK                         _______ _______ _______ _____ _____    ______ ____
ROOT
ATOM      1  C   LIG    1        1.514  -0.013  -0.159  0.00  0.00    +0.164 A 
ATOM      2  N   LIG    1        2.171  -1.069  -0.699  0.00  0.00    -0.227 NA
ATOM      3  C   LIG    1        3.532  -1.058  -0.657  0.00  0.00    +0.077 A 
ATOM      4  C   LIG    1        4.205  -2.157  -1.235  0.00  0.00    +0.028 A 
ATOM      5  C   LIG    1        5.591  -2.205  -1.236  0.00  0.00    +0.003 A 
ATOM      6  C   LIG    1        6.329  -1.181  -0.662  0.00  0.00    +0.009 A 
ATOM      7  C   LIG    1        5.721  -0.073  -0.064  0.00  0.00    -0.005 A 
ATOM      8  C   LIG    1        4.278   0.014  -0.062  0.00  0.00    +0.048 A 
ATOM      9  C   LIG    1        3.470   1.084   0.466  0.00  0.00    +0.131 A 
ATOM     10  N   LIG    1        2.113   1.057   0.417  0.00  0.00    -0.212 NA
ENDROOT
BRANCH   1  13
ATOM     11  C   LIG    1       -2.153   1.005   0.238  0.00  0.00    +0.124 A 
ATOM     12  C   LIG    1       -0.757   1.039   0.299  0.00  0.00    +0.043 A 
ATOM     13  C   LIG    1        0.013  -0.024  -0.208  0.00  0.00    +0.039 A 
ATOM     14  C   LIG    1       -0.706  -1.097  -0.767  0.00  0.00    +0.122 A 
ATOM     15  N   LIG    1       -2.060  -1.153  -0.838  0.00  0.00    -0.261 NA
ATOM     16  C   LIG    1       -2.764  -0.109  -0.338  0.00  0.00    +0.139 A 
BRANCH  11  17
ATOM     17  S   LIG    1       -3.115   2.367   0.880  0.00  0.00    +0.057 S 
ATOM     18  O   LIG    1       -4.529   1.980   0.831  0.00  0.00    -0.153 OA
ATOM     19  O   LIG    1       -2.486   2.779   2.139  0.00  0.00    -0.153 OA
BRANCH  17  20
ATOM     20  N   LIG    1       -2.874   3.658  -0.281  0.00  0.00    -0.203 NA
ATOM     21  H   LIG    1       -3.285   3.484  -1.201  0.00  0.00    +0.144 HD
ATOM     22  H   LIG    1       -1.916   4.016  -0.325  0.00  0.00    +0.144 HD
ENDBRANCH  17  20
ENDBRANCH  11  17
ENDBRANCH   1  13
BRANCH   7  23
ATOM     23  C   LIG    1        6.622   0.937   0.550  0.00  0.00    -0.017 A 
ATOM     24  C   LIG    1        6.771   1.000   1.940  0.00  0.00    +0.008 A 
ATOM     25  C   LIG    1        7.626   1.938   2.514  0.00  0.00    +0.001 A 
ATOM     26  C   LIG    1        8.341   2.808   1.696  0.00  0.00    +0.000 A 
ATOM     27  C   LIG    1        8.209   2.749   0.311  0.00  0.00    +0.001 A 
ATOM     28  C   LIG    1        7.354   1.810  -0.261  0.00  0.00    +0.008 A 
ENDBRANCH   7  23
BRANCH   9  29
ATOM     29  N   LIG    1        4.047   2.224   1.056  0.00  0.00    -0.323 N 
ATOM     30  H   LIG    1        5.048   2.341   0.984  0.00  0.00    +0.148 HD
BRANCH  29  31
ATOM     31  C   LIG    1        3.269   3.368   1.530  0.00  0.00    +0.158 C 
BRANCH  31  32
ATOM     32  C   LIG    1        4.130   4.390   2.265  0.00  0.00    +0.058 A 
ATOM     33  C   LIG    1        3.653   5.009   3.425  0.00  0.00    +0.025 A 
ATOM     34  C   LIG    1        4.457   5.959   4.058  0.00  0.00    +0.003 A 
ATOM     35  C   LIG    1        5.704   6.276   3.516  0.00  0.00    +0.020 A 
ATOM     36  C   LIG    1        6.105   5.630   2.346  0.00  0.00    +0.111 A 
ATOM     37  N   LIG    1        5.337   4.705   1.715  0.00  0.00    -0.258 NA
ENDBRANCH  31  32
ENDBRANCH  29  31
ENDBRANCH   9  29
TORSDOF 7
