REMARK  Name = DB15209
REMARK                            x       y       z     vdW  Elec       q    Type
REMARK                         _______ _______ _______ _____ _____    ______ ____
ROOT
ATOM      1  C   LIG    1        1.859  -1.490   0.139  0.00  0.00    -0.029 C 
ATOM      2  C   LIG    1        3.393  -1.581   0.386  0.00  0.00    +0.008 C 
ATOM      3  C   LIG    1        3.889  -3.052   0.383  0.00  0.00    +0.015 C 
ATOM      4  C   LIG    1        2.724  -4.067   0.129  0.00  0.00    +0.031 C 
ATOM      5  C   LIG    1        1.675  -3.808   1.256  0.00  0.00    +0.015 C 
ATOM      6  C   LIG    1        2.091  -3.664  -1.238  0.00  0.00    +0.015 C 
ATOM      7  C   LIG    1        1.177  -2.335   1.257  0.00  0.00    +0.008 C 
ATOM      8  C   LIG    1        1.578  -2.195  -1.225  0.00  0.00    +0.008 C 
ENDROOT
BRANCH   4   9
ATOM      9  C   LIG    1        3.233  -5.526   0.109  0.00  0.00    +0.140 A 
ATOM     10  N   LIG    1        2.469  -6.686   0.126  0.00  0.00    -0.314 N 
ATOM     11  C   LIG    1        1.018  -6.842   0.134  0.00  0.00    +0.152 C 
ATOM     12  C   LIG    1        3.399  -7.707   0.064  0.00  0.00    +0.165 A 
ATOM     13  N   LIG    1        4.615  -7.224   0.020  0.00  0.00    -0.129 NA
ATOM     14  N   LIG    1        4.507  -5.842   0.040  0.00  0.00    -0.133 NA
BRANCH  12  15
ATOM     15  C   LIG    1        3.088  -9.170   0.056  0.00  0.00    +0.031 A 
ATOM     16  C   LIG    1        3.466 -10.045  -0.988  0.00  0.00    +0.065 A 
ATOM     17  C   LIG    1        3.140 -11.406  -0.881  0.00  0.00    +0.013 A 
ATOM     18  C   LIG    1        2.455 -11.895   0.229  0.00  0.00    +0.001 A 
ATOM     19  C   LIG    1        2.082 -11.029   1.252  0.00  0.00    +0.001 A 
ATOM     20  C   LIG    1        2.398  -9.675   1.165  0.00  0.00    +0.012 A 
BRANCH  16  21
ATOM     21  C   LIG    1        4.186  -9.542  -2.248  0.00  0.00    +0.418 C 
ATOM     22  F   LIG    1        5.459  -9.276  -1.958  0.00  0.00    -0.166 F 
ATOM     23  F   LIG    1        3.609  -8.436  -2.719  0.00  0.00    -0.166 F 
ATOM     24  F   LIG    1        4.171 -10.444  -3.232  0.00  0.00    -0.166 F 
ENDBRANCH  16  21
ENDBRANCH  12  15
ENDBRANCH   4   9
BRANCH   1  25
ATOM     25  C   LIG    1        1.407  -0.002   0.151  0.00  0.00    +0.008 C 
BRANCH  25  26
ATOM     26  C   LIG    1       -0.097   0.263  -0.077  0.00  0.00    +0.023 C 
BRANCH  26  27
ATOM     27  C   LIG    1       -0.442   1.760  -0.036  0.00  0.00    +0.166 C 
BRANCH  27  28
ATOM     28  S   LIG    1       -2.297   2.007  -0.318  0.00  0.00    -0.031 S 
ATOM     29  O   LIG    1       -2.611   1.539  -1.672  0.00  0.00    -0.174 OA
ATOM     30  O   LIG    1       -3.013   1.439   0.829  0.00  0.00    -0.174 OA
BRANCH  28  32
ATOM     31  C   LIG    1       -2.270   4.457   1.109  0.00  0.00    +0.028 C 
ATOM     32  C   LIG    1       -2.526   3.888  -0.293  0.00  0.00    +0.162 C 
ENDBRANCH  28  32
ENDBRANCH  27  28
ENDBRANCH  26  27
ENDBRANCH  25  26
ENDBRANCH   1  25
TORSDOF 8
