REMARK  Name = DB15598
REMARK                            x       y       z     vdW  Elec       q    Type
REMARK                         _______ _______ _______ _____ _____    ______ ____
ROOT
ATOM      1  O   LIG    1       -0.518   1.203   0.000  0.00  0.00    -0.464 OA
ATOM      2  C   LIG    1       -1.866   1.366   0.000  0.00  0.00    +0.199 A 
ATOM      3  C   LIG    1       -2.744   0.342   0.000  0.00  0.00    +0.092 A 
ATOM      4  C   LIG    1       -2.289  -1.059   0.000  0.00  0.00    +0.226 A 
ATOM      5  O   LIG    1       -3.109  -1.984   0.000  0.00  0.00    -0.284 OA
ATOM      6  C   LIG    1       -0.794  -1.170   0.000  0.00  0.00    +0.202 A 
ATOM      7  C   LIG    1       -0.003  -0.058   0.000  0.00  0.00    +0.147 A 
ATOM      8  C   LIG    1        1.520   0.036   0.000  0.00  0.00    +0.090 C 
ENDROOT
BRANCH   6   9
ATOM      9  O   LIG    1       -0.311  -2.368   0.000  0.00  0.00    -0.501 OA
ATOM     10  H   LIG    1        0.617  -2.499   0.000  0.00  0.00    +0.292 HD
ENDBRANCH   6   9
TORSDOF 1
