REMARK  Name = DB15393
REMARK                            x       y       z     vdW  Elec       q    Type
REMARK                         _______ _______ _______ _____ _____    ______ ____
ROOT
ATOM      1  C   LIG    1        1.867  -1.276   0.141  0.00  0.00    +0.278 A 
ATOM      2  N   LIG    1        1.292  -2.379  -0.416  0.00  0.00    -0.106 NA
ATOM      3  N   LIG    1        1.950  -3.553  -0.431  0.00  0.00    -0.130 NA
ATOM      4  C   LIG    1        3.191  -3.691   0.115  0.00  0.00    +0.156 A 
ATOM      5  C   LIG    1        3.854  -2.579   0.682  0.00  0.00    +0.067 A 
ATOM      6  C   LIG    1        5.118  -2.266   1.284  0.00  0.00    +0.053 A 
ATOM      7  C   LIG    1        5.063  -0.920   1.617  0.00  0.00    +0.196 A 
ATOM      8  O   LIG    1        3.875  -0.355   1.261  0.00  0.00    -0.457 OA
ATOM      9  C   LIG    1        3.149  -1.358   0.687  0.00  0.00    +0.201 A 
ENDROOT
BRANCH   4  10
ATOM     10  N   LIG    1        3.747  -4.977   0.027  0.00  0.00    -0.297 N 
ATOM     11  H   LIG    1        3.227  -5.618  -0.556  0.00  0.00    +0.154 HD
BRANCH  10  12
ATOM     12  C   LIG    1        4.804  -5.562   0.737  0.00  0.00    +0.033 A 
ATOM     13  C   LIG    1        4.937  -5.382   2.118  0.00  0.00    +0.025 A 
ATOM     14  C   LIG    1        5.981  -5.998   2.803  0.00  0.00    +0.022 A 
ATOM     15  C   LIG    1        6.883  -6.802   2.109  0.00  0.00    +0.041 A 
ATOM     16 CL   LIG    1        8.178  -7.565   2.957  0.00  0.00    -0.084 Cl
ATOM     17  C   LIG    1        6.745  -7.000   0.736  0.00  0.00    +0.022 A 
ATOM     18  C   LIG    1        5.700  -6.384   0.051  0.00  0.00    +0.025 A 
ENDBRANCH  10  12
ENDBRANCH   4  10
BRANCH   1  19
ATOM     19  O   LIG    1        1.218  -0.058   0.179  0.00  0.00    -0.468 OA
BRANCH  19  20
ATOM     20  C   LIG    1       -0.095   0.045  -0.374  0.00  0.00    +0.266 C 
BRANCH  20  25
ATOM     21  C   LIG    1       -0.580   3.714   0.663  0.00  0.00    +0.126 A 
ATOM     22  N   LIG    1       -1.798   3.996   0.114  0.00  0.00    -0.250 NA
ATOM     23  C   LIG    1       -2.443   3.023  -0.575  0.00  0.00    +0.112 A 
ATOM     24  C   LIG    1       -1.918   1.744  -0.748  0.00  0.00    +0.026 A 
ATOM     25  C   LIG    1       -0.671   1.446  -0.191  0.00  0.00    -0.007 A 
ATOM     26  C   LIG    1        0.005   2.445   0.524  0.00  0.00    +0.040 A 
BRANCH  21  30
ATOM     27  C   LIG    1        0.021   7.158   2.240  0.00  0.00    +0.128 C 
ATOM     28  N   LIG    1       -0.497   5.993   1.534  0.00  0.00    -0.313 N 
ATOM     29  H   LIG    1       -1.390   6.102   1.076  0.00  0.00    +0.149 HD
ATOM     30  C   LIG    1        0.135   4.807   1.435  0.00  0.00    +0.262 C 
ATOM     31  O   LIG    1        1.241   4.598   1.940  0.00  0.00    -0.269 OA
ENDBRANCH  21  30
ENDBRANCH  20  25
ENDBRANCH  19  20
ENDBRANCH   1  19
TORSDOF 6
