REMARK  Name = DB15191
REMARK                            x       y       z     vdW  Elec       q    Type
REMARK                         _______ _______ _______ _____ _____    ______ ____
ROOT
ATOM      1  C   LIG    1        1.630  -0.012  -0.157  0.00  0.00    +0.022 A 
ATOM      2  C   LIG    1        2.417  -0.987   0.534  0.00  0.00    +0.091 A 
ATOM      3  N   LIG    1        1.980  -1.789   1.515  0.00  0.00    -0.213 NA
ATOM      4  C   LIG    1        2.873  -2.669   2.046  0.00  0.00    +0.220 A 
ATOM      5  N   LIG    1        4.173  -2.789   1.678  0.00  0.00    -0.222 NA
ATOM      6  C   LIG    1        4.625  -1.969   0.697  0.00  0.00    +0.131 A 
ATOM      7  C   LIG    1        3.761  -1.045   0.094  0.00  0.00    +0.057 A 
ATOM      8  S   LIG    1        4.056   0.117  -1.174  0.00  0.00    -0.090 S 
ATOM      9  C   LIG    1        2.385   0.666  -1.119  0.00  0.00    -0.003 A 
ATOM     10  C   LIG    1        1.949   1.752  -2.079  0.00  0.00    +0.052 C 
ENDROOT
BRANCH   1  12
ATOM     11  C   LIG    1       -0.781  -0.783   0.051  0.00  0.00    +0.131 A 
ATOM     12  C   LIG    1        0.179   0.244   0.123  0.00  0.00    +0.027 A 
ATOM     13  C   LIG    1       -0.208   1.533   0.508  0.00  0.00    +0.015 A 
ATOM     14  C   LIG    1       -1.536   1.808   0.826  0.00  0.00    +0.039 A 
ATOM     15  C   LIG    1       -2.490   0.797   0.761  0.00  0.00    +0.127 A 
ATOM     16  F   LIG    1       -3.777   1.061   1.078  0.00  0.00    -0.205 F 
ATOM     17  C   LIG    1       -2.118  -0.488   0.373  0.00  0.00    +0.084 A 
BRANCH  11  19
ATOM     18  C   LIG    1       -1.264  -3.131  -0.331  0.00  0.00    +0.277 C 
ATOM     19  O   LIG    1       -0.353  -2.038  -0.347  0.00  0.00    -0.494 OA
ENDBRANCH  11  19
ENDBRANCH   1  12
BRANCH   4  20
ATOM     20  N   LIG    1        2.453  -3.560   3.047  0.00  0.00    -0.281 N 
ATOM     21  H   LIG    1        3.188  -4.199   3.313  0.00  0.00    +0.155 HD
BRANCH  20  22
ATOM     22  C   LIG    1        1.197  -3.711   3.596  0.00  0.00    +0.071 A 
ATOM     23  C   LIG    1        0.727  -4.807   4.332  0.00  0.00    +0.157 A 
ATOM     24  N   LIG    1       -0.514  -4.678   4.745  0.00  0.00    -0.177 NA
ATOM     25  N   LIG    1       -0.915  -3.492   4.268  0.00  0.00    -0.267 N 
ATOM     26  C   LIG    1        0.105  -2.852   3.604  0.00  0.00    +0.132 A 
BRANCH  25  27
ATOM     27  C   LIG    1       -2.263  -3.005   4.614  0.00  0.00    +0.104 C 
ATOM     28  C   LIG    1       -2.160  -2.234   5.951  0.00  0.00    +0.008 C 
ATOM     29  C   LIG    1       -3.487  -1.557   6.343  0.00  0.00    -0.081 C 
ATOM     30  N   LIG    1       -3.973  -0.665   5.186  0.00  0.00    +0.379 N 
ATOM     31  H   LIG    1       -4.848  -0.231   5.443  0.00  0.00    -0.086 HD
ATOM     32  H   LIG    1       -3.306   0.079   5.035  0.00  0.00    -0.086 HD
ATOM     33  C   LIG    1       -4.159  -1.449   3.874  0.00  0.00    -0.081 C 
ATOM     34  C   LIG    1       -2.821  -2.100   3.485  0.00  0.00    +0.008 C 
ENDBRANCH  25  27
ENDBRANCH  20  22
ENDBRANCH   4  20
TORSDOF 5
