REMARK  Name = DB15264
REMARK                            x       y       z     vdW  Elec       q    Type
REMARK                         _______ _______ _______ _____ _____    ______ ____
ROOT
ATOM      1  C   LIG    1        2.119   0.648  -1.259  0.00  0.00    -0.018 C 
ENDROOT
BRANCH   1   2
ATOM      2  C   LIG    1        1.417   0.036  -0.011  0.00  0.00    +0.005 C 
BRANCH   2   3
ATOM      3  C   LIG    1       -0.132   0.132   0.063  0.00  0.00    -0.014 C 
ATOM      4  C   LIG    1       -0.635   1.590  -0.015  0.00  0.00    +0.007 C 
BRANCH   3   5
ATOM      5  C   LIG    1       -0.655  -0.599   1.325  0.00  0.00    +0.003 C 
BRANCH   5   7
ATOM      6  C   LIG    1       -2.634  -1.639   2.579  0.00  0.00    +0.004 C 
ATOM      7  C   LIG    1       -2.183  -0.802   1.374  0.00  0.00    -0.003 C 
ENDBRANCH   5   7
ENDBRANCH   3   5
ENDBRANCH   2   3
ENDBRANCH   1   2
BRANCH   1   8
ATOM      8  C   LIG    1        3.678   0.548  -1.120  0.00  0.00    +0.122 C 
BRANCH   8   9
ATOM      9  C   LIG    1        4.316   1.496  -0.075  0.00  0.00    +0.305 C 
ATOM     10  O   LIG    1        5.359   1.089   0.485  0.00  0.00    -0.251 OA
BRANCH   9  11
ATOM     11  O   LIG    1        3.802   2.620   0.129  0.00  0.00    -0.481 OA
ATOM     12  H   LIG    1        4.180   3.201   0.758  0.00  0.00    +0.295 HD
ENDBRANCH   9  11
ENDBRANCH   8   9
ENDBRANCH   1   8
BRANCH   1  13
ATOM     13  C   LIG    1        1.601   0.006  -2.577  0.00  0.00    -0.082 C 
BRANCH  13  14
ATOM     14  N   LIG    1        2.113   0.748  -3.821  0.00  0.00    +0.378 N 
ATOM     15  H   LIG    1        1.805   1.710  -3.801  0.00  0.00    -0.090 HD
ATOM     16  H   LIG    1        3.123   0.732  -3.842  0.00  0.00    -0.090 HD
ATOM     17  H   LIG    1        1.761   0.309  -4.659  0.00  0.00    -0.090 HD
ENDBRANCH  13  14
ENDBRANCH   1  13
TORSDOF 9
