REMARK  Name = DB15321
REMARK                            x       y       z     vdW  Elec       q    Type
REMARK                         _______ _______ _______ _____ _____    ______ ____
ROOT
ATOM      1  C   LIG    1        3.813  -0.052  -2.024  0.00  0.00    +0.033 A 
ATOM      2  C   LIG    1        4.663  -0.138  -0.911  0.00  0.00    +0.023 A 
ATOM      3  C   LIG    1        6.043  -0.160  -1.090  0.00  0.00    +0.007 A 
ATOM      4  C   LIG    1        6.583  -0.112  -2.376  0.00  0.00    -0.033 A 
ATOM      5  C   LIG    1        5.739  -0.024  -3.485  0.00  0.00    +0.007 A 
ATOM      6  C   LIG    1        4.359  -0.003  -3.309  0.00  0.00    +0.023 A 
ENDROOT
BRANCH   1   8
ATOM      7  C   LIG    1        1.612   0.250  -0.899  0.00  0.00    +0.217 C 
ATOM      8  N   LIG    1        2.407  -0.043  -1.951  0.00  0.00    -0.285 N 
ATOM      9  H   LIG    1        1.942  -0.228  -2.827  0.00  0.00    +0.155 HD
ATOM     10  O   LIG    1        2.008   0.599   0.214  0.00  0.00    -0.275 OA
BRANCH   7  11
ATOM     11  C   LIG    1        0.101   0.151  -1.159  0.00  0.00    +0.096 C 
BRANCH  11  12
ATOM     12  C   LIG    1       -0.655   1.484  -0.954  0.00  0.00    +0.009 C 
BRANCH  12  13
ATOM     13  C   LIG    1       -0.274   2.591  -1.958  0.00  0.00    +0.000 C 
BRANCH  13  14
ATOM     14  C   LIG    1       -1.072   3.891  -1.752  0.00  0.00    +0.000 C 
BRANCH  14  15
ATOM     15  C   LIG    1       -0.690   4.993  -2.757  0.00  0.00    +0.009 C 
BRANCH  15  16
ATOM     16  C   LIG    1       -1.481   6.302  -2.536  0.00  0.00    +0.098 C 
BRANCH  16  19
ATOM     17  N   LIG    1       -1.510   8.670  -3.126  0.00  0.00    -0.197 N 
ATOM     18  H   LIG    1       -1.819   8.932  -2.201  0.00  0.00    +0.182 HD
ATOM     19  C   LIG    1       -1.108   7.442  -3.498  0.00  0.00    +0.235 C 
ATOM     20  O   LIG    1       -0.485   7.212  -4.538  0.00  0.00    -0.274 OA
BRANCH  17  21
ATOM     21  O   LIG    1       -1.049   9.760  -3.871  0.00  0.00    -0.295 OA
ATOM     22  H   LIG    1       -0.283   9.401  -4.328  0.00  0.00    +0.241 HD
ENDBRANCH  17  21
ENDBRANCH  16  19
ENDBRANCH  15  16
ENDBRANCH  14  15
ENDBRANCH  13  14
ENDBRANCH  12  13
ENDBRANCH  11  12
ENDBRANCH   7  11
ENDBRANCH   1   8
BRANCH   4  23
ATOM     23  C   LIG    1        8.093  -0.181  -2.571  0.00  0.00    +0.117 C 
BRANCH  23  24
ATOM     24  N   LIG    1        8.532  -1.438  -3.176  0.00  0.00    -0.296 NA
ATOM     25  H   LIG    1        9.516  -1.354  -3.388  0.00  0.00    +0.123 HD
BRANCH  24  26
ATOM     26  C   LIG    1        8.298  -2.633  -2.326  0.00  0.00    +0.194 C 
BRANCH  26  27
ATOM     27  C   LIG    1        6.955  -3.321  -2.418  0.00  0.00    -0.020 A 
ATOM     28  C   LIG    1        6.283  -3.432  -3.642  0.00  0.00    +0.006 A 
ATOM     29  C   LIG    1        5.026  -4.028  -3.700  0.00  0.00    +0.000 A 
ATOM     30  C   LIG    1        4.439  -4.514  -2.535  0.00  0.00    +0.000 A 
ATOM     31  C   LIG    1        5.099  -4.413  -1.313  0.00  0.00    +0.000 A 
ATOM     32  C   LIG    1        6.356  -3.818  -1.255  0.00  0.00    +0.006 A 
ENDBRANCH  26  27
BRANCH  26  33
ATOM     33  C   LIG    1        9.391  -3.649  -2.611  0.00  0.00    +0.329 C 
ATOM     34  O   LIG    1        9.756  -3.959  -3.749  0.00  0.00    -0.249 OA
BRANCH  33  35
ATOM     35  O   LIG    1        9.891  -4.172  -1.463  0.00  0.00    -0.460 OA
BRANCH  35  36
ATOM     36  C   LIG    1       10.930  -5.152  -1.477  0.00  0.00    +0.177 C 
ATOM     37  C   LIG    1       12.315  -4.561  -1.838  0.00  0.00    +0.044 C 
ATOM     38  C   LIG    1       13.174  -4.667  -0.574  0.00  0.00    +0.004 C 
ATOM     39  C   LIG    1       12.581  -5.848   0.188  0.00  0.00    +0.004 C 
ATOM     40  C   LIG    1       11.077  -5.711  -0.048  0.00  0.00    +0.044 C 
ENDBRANCH  35  36
ENDBRANCH  33  35
ENDBRANCH  26  33
ENDBRANCH  24  26
ENDBRANCH  23  24
ENDBRANCH   4  23
TORSDOF 16
