REMARK  Name = DB15250
REMARK                            x       y       z     vdW  Elec       q    Type
REMARK                         _______ _______ _______ _____ _____    ______ ____
ROOT
ATOM      1  C   LIG    1        1.316  -1.543   0.589  0.00  0.00    +0.059 A 
ATOM      2  C   LIG    1        0.985  -2.725  -0.097  0.00  0.00    +0.026 A 
ATOM      3  C   LIG    1        1.878  -3.354  -0.959  0.00  0.00    +0.022 A 
ATOM      4  C   LIG    1        3.144  -2.819  -1.153  0.00  0.00    +0.042 A 
ATOM      5 CL   LIG    1        4.255  -3.588  -2.226  0.00  0.00    -0.084 Cl
ATOM      6  C   LIG    1        3.513  -1.662  -0.476  0.00  0.00    +0.033 A 
ATOM      7  C   LIG    1        2.628  -1.024   0.409  0.00  0.00    +0.042 A 
ENDROOT
BRANCH   1   8
ATOM      8  N   LIG    1        0.417  -0.975   1.466  0.00  0.00    -0.216 N 
ATOM      9  H   LIG    1        0.732  -0.741   2.369  0.00  0.00    +0.174 HD
BRANCH   8  10
ATOM     10  S   LIG    1       -1.086  -0.678   1.103  0.00  0.00    +0.072 S 
ATOM     11  O   LIG    1       -1.587  -1.310  -0.124  0.00  0.00    -0.150 OA
ATOM     12  O   LIG    1       -1.970  -0.698   2.275  0.00  0.00    -0.150 OA
BRANCH  10  16
ATOM     13  C   LIG    1       -0.490   3.757   0.027  0.00  0.00    -0.042 A 
ATOM     14  C   LIG    1       -0.378   2.759  -0.954  0.00  0.00    +0.006 A 
ATOM     15  C   LIG    1       -0.581   1.420  -0.632  0.00  0.00    +0.029 A 
ATOM     16  C   LIG    1       -0.908   1.057   0.674  0.00  0.00    +0.109 A 
ATOM     17  C   LIG    1       -1.017   2.036   1.662  0.00  0.00    +0.029 A 
ATOM     18  C   LIG    1       -0.814   3.373   1.337  0.00  0.00    +0.006 A 
BRANCH  13  20
ATOM     19  C   LIG    1        0.079   5.526  -1.780  0.00  0.00    +0.015 C 
ATOM     20  C   LIG    1       -0.258   5.257  -0.288  0.00  0.00    -0.013 C 
ATOM     21  C   LIG    1       -1.535   6.067   0.050  0.00  0.00    +0.015 C 
ATOM     22  C   LIG    1        0.926   5.789   0.557  0.00  0.00    +0.015 C 
ENDBRANCH  13  20
ENDBRANCH  10  16
ENDBRANCH   8  10
ENDBRANCH   1   8
BRANCH   7  23
ATOM     23  C   LIG    1        3.112   0.253   1.051  0.00  0.00    +0.173 C 
ATOM     24  O   LIG    1        2.380   1.246   1.067  0.00  0.00    -0.291 OA
BRANCH  23  25
ATOM     25  C   LIG    1        4.470   0.316   1.694  0.00  0.00    +0.056 C 
ATOM     26  C   LIG    1        5.145  -0.845   2.111  0.00  0.00    +0.031 C 
ATOM     27  C   LIG    1        6.392  -0.740   2.729  0.00  0.00    +0.109 C 
ATOM     28  N   LIG    1        6.936   0.477   2.935  0.00  0.00    -0.181 NA
ATOM     29  C   LIG    1        6.317   1.619   2.571  0.00  0.00    +0.109 C 
ATOM     30  C   LIG    1        5.069   1.561   1.950  0.00  0.00    +0.031 C 
BRANCH  28  31
ATOM     31  O   LIG    1        8.063   0.551   3.494  0.00  0.00    -0.312 OA
ATOM     32  H   LIG    1        8.324   1.482   3.574  0.00  0.00    +0.237 HD
ENDBRANCH  28  31
ENDBRANCH  23  25
ENDBRANCH   7  23
TORSDOF 7
