REMARK  Name = DB15297
REMARK                            x       y       z     vdW  Elec       q    Type
REMARK                         _______ _______ _______ _____ _____    ______ ____
ROOT
ATOM      1  C   LIG    1        1.686   0.336  -0.547  0.00  0.00    +0.155 C 
ATOM      2  C   LIG    1        2.324  -1.004  -0.941  0.00  0.00    +0.135 C 
ATOM      3  N   LIG    1        3.699  -0.643  -1.327  0.00  0.00    -0.287 N 
ATOM      4  C   LIG    1        4.453  -1.366  -2.198  0.00  0.00    +0.231 C 
ATOM      5  O   LIG    1        5.508  -0.928  -2.661  0.00  0.00    -0.275 OA
ATOM      6  C   LIG    1        4.036   0.744  -0.941  0.00  0.00    +0.164 C 
ATOM      7  C   LIG    1        2.668   1.433  -0.940  0.00  0.00    +0.060 C 
ENDROOT
BRANCH   6   8
ATOM      8  C   LIG    1        4.797   0.824   0.410  0.00  0.00    +0.235 C 
ATOM      9  N   LIG    1        5.723  -0.129   0.647  0.00  0.00    -0.296 N 
ATOM     10  H   LIG    1        5.840  -0.821  -0.080  0.00  0.00    +0.150 HD
ATOM     11  O   LIG    1        4.624   1.790   1.154  0.00  0.00    -0.274 OA
BRANCH   9  12
ATOM     12  C   LIG    1        6.633  -0.304   1.788  0.00  0.00    +0.121 C 
ATOM     13  C   LIG    1        6.222   0.118   3.188  0.00  0.00    +0.044 C 
ATOM     14  C   LIG    1        7.288   0.894   2.450  0.00  0.00    +0.044 C 
BRANCH  12  15
ATOM     15  C   LIG    1        7.436  -1.534   1.688  0.00  0.00    +0.088 C 
ATOM     16  N   LIG    1        8.066  -2.501   1.608  0.00  0.00    -0.194 NA
ENDBRANCH  12  15
ENDBRANCH   9  12
ENDBRANCH   6   8
BRANCH   1  17
ATOM     17  S   LIG    1       -0.034   0.567  -1.316  0.00  0.00    +0.002 S 
ATOM     18  O   LIG    1        0.130   0.673  -2.771  0.00  0.00    -0.169 OA
ATOM     19  O   LIG    1       -0.932  -0.460  -0.779  0.00  0.00    -0.169 OA
BRANCH  17  23
ATOM     20  C   LIG    1       -1.273   4.824   0.023  0.00  0.00    -0.014 A 
ATOM     21  C   LIG    1       -0.607   4.578  -1.176  0.00  0.00    +0.010 A 
ATOM     22  C   LIG    1       -0.258   3.281  -1.535  0.00  0.00    +0.028 A 
ATOM     23  C   LIG    1       -0.561   2.192  -0.708  0.00  0.00    +0.100 A 
ATOM     24  C   LIG    1       -1.224   2.424   0.523  0.00  0.00    +0.080 A 
ATOM     25  C   LIG    1       -1.577   3.743   0.855  0.00  0.00    +0.023 A 
BRANCH  20  30
ATOM     26  C   LIG    1       -2.201   9.796   0.085  0.00  0.00    +0.172 C 
ATOM     27  N   LIG    1       -2.053   8.393   0.429  0.00  0.00    -0.274 N 
ATOM     28  N   LIG    1       -2.371   7.982   1.660  0.00  0.00    -0.179 NA
ATOM     29  C   LIG    1       -2.130   6.691   1.646  0.00  0.00    +0.142 A 
ATOM     30  C   LIG    1       -1.651   6.218   0.409  0.00  0.00    +0.020 A 
ATOM     31  C   LIG    1       -1.612   7.370  -0.367  0.00  0.00    +0.116 A 
ENDBRANCH  20  30
BRANCH  24  32
ATOM     32  C   LIG    1       -1.598   1.310   1.516  0.00  0.00    +0.419 C 
ATOM     33  F   LIG    1       -2.630   0.615   1.038  0.00  0.00    -0.166 F 
ATOM     34  F   LIG    1       -1.964   1.792   2.706  0.00  0.00    -0.166 F 
ATOM     35  F   LIG    1       -0.575   0.489   1.742  0.00  0.00    -0.166 F 
ENDBRANCH  24  32
ENDBRANCH  17  23
ENDBRANCH   1  17
BRANCH   4  36
ATOM     36  C   LIG    1        4.020  -2.801  -2.591  0.00  0.00    +0.142 C 
ATOM     37  C   LIG    1        4.307  -3.173  -4.041  0.00  0.00    +0.026 C 
ATOM     38  C   LIG    1        2.886  -2.913  -3.595  0.00  0.00    +0.026 C 
BRANCH  36  39
ATOM     39  C   LIG    1        4.235  -3.891  -1.506  0.00  0.00    +0.404 C 
ATOM     40  F   LIG    1        5.517  -3.958  -1.143  0.00  0.00    -0.170 F 
ATOM     41  F   LIG    1        3.892  -5.106  -1.938  0.00  0.00    -0.170 F 
ATOM     42  F   LIG    1        3.521  -3.667  -0.404  0.00  0.00    -0.170 F 
ENDBRANCH  36  39
ENDBRANCH   4  36
TORSDOF 9
