REMARK  Name = DB15189
REMARK                            x       y       z     vdW  Elec       q    Type
REMARK                         _______ _______ _______ _____ _____    ______ ____
ROOT
ATOM      1  C   LIG    1       -3.278  -1.915   3.489  0.00  0.00    +0.088 C 
ATOM      2  C   LIG    1       -2.005  -1.570   2.745  0.00  0.00    +0.135 A 
ATOM      3  N   LIG    1       -1.941  -0.916   1.530  0.00  0.00    -0.275 N 
ATOM      4  C   LIG    1       -2.940  -0.425   0.704  0.00  0.00    +0.097 A 
ATOM      5  S   LIG    1       -4.413  -1.256   0.353  0.00  0.00    -0.075 S 
ATOM      6  C   LIG    1       -4.955  -0.002  -0.710  0.00  0.00    -0.008 A 
ATOM      7  C   LIG    1       -4.018   1.037  -0.795  0.00  0.00    -0.029 A 
ATOM      8  C   LIG    1       -4.196   2.204  -1.756  0.00  0.00    +0.045 C 
ATOM      9  C   LIG    1       -6.293  -0.148  -1.403  0.00  0.00    +0.052 C 
ATOM     10  C   LIG    1       -2.869   0.807   0.017  0.00  0.00    +0.035 A 
ATOM     11  C   LIG    1       -1.704   1.736   0.156  0.00  0.00    +0.076 C 
ATOM     12  N   LIG    1       -0.463   1.395   0.192  0.00  0.00    -0.271 NA
ATOM     13  C   LIG    1       -0.073  -0.011   0.083  0.00  0.00    +0.183 C 
ATOM     14  C   LIG    1       -0.587  -0.792   1.296  0.00  0.00    +0.163 A 
ATOM     15  N   LIG    1        0.105  -1.343   2.266  0.00  0.00    -0.132 NA
ATOM     16  N   LIG    1       -0.804  -1.846   3.189  0.00  0.00    -0.134 NA
ENDROOT
BRANCH  11  17
ATOM     17  C   LIG    1       -2.047   3.168   0.290  0.00  0.00    +0.001 A 
ATOM     18  C   LIG    1       -1.319   4.136  -0.417  0.00  0.00    +0.011 A 
ATOM     19  C   LIG    1       -1.637   5.485  -0.291  0.00  0.00    +0.020 A 
ATOM     20  C   LIG    1       -2.678   5.875   0.548  0.00  0.00    +0.041 A 
ATOM     21 CL   LIG    1       -3.072   7.548   0.704  0.00  0.00    -0.084 Cl
ATOM     22  C   LIG    1       -3.402   4.925   1.265  0.00  0.00    +0.020 A 
ATOM     23  C   LIG    1       -3.087   3.575   1.139  0.00  0.00    +0.011 A 
ENDBRANCH  11  17
BRANCH  13  24
ATOM     24  C   LIG    1        1.470  -0.109  -0.088  0.00  0.00    +0.130 C 
BRANCH  24  25
ATOM     25  C   LIG    1        2.022   0.546  -1.367  0.00  0.00    +0.220 C 
ATOM     26  N   LIG    1        3.150   1.273  -1.212  0.00  0.00    -0.285 N 
ATOM     27  H   LIG    1        3.585   1.242  -0.302  0.00  0.00    +0.155 HD
ATOM     28  O   LIG    1        1.446   0.362  -2.441  0.00  0.00    -0.275 OA
BRANCH  26  29
ATOM     29  C   LIG    1        3.854   2.014  -2.179  0.00  0.00    +0.034 A 
ATOM     30  C   LIG    1        3.266   2.540  -3.341  0.00  0.00    +0.027 A 
ATOM     31  C   LIG    1        4.035   3.283  -4.233  0.00  0.00    +0.047 A 
ATOM     32  C   LIG    1        5.383   3.510  -3.964  0.00  0.00    +0.117 A 
ATOM     33  C   LIG    1        5.969   3.003  -2.806  0.00  0.00    +0.047 A 
ATOM     34  C   LIG    1        5.203   2.260  -1.912  0.00  0.00    +0.027 A 
BRANCH  32  35
ATOM     35  O   LIG    1        6.138   4.242  -4.842  0.00  0.00    -0.507 OA
ATOM     36  H   LIG    1        5.638   4.543  -5.604  0.00  0.00    +0.292 HD
ENDBRANCH  32  35
ENDBRANCH  26  29
ENDBRANCH  24  25
ENDBRANCH  13  24
TORSDOF 5
