REMARK  Name = DB15071
REMARK                            x       y       z     vdW  Elec       q    Type
REMARK                         _______ _______ _______ _____ _____    ______ ____
ROOT
ATOM      1  N   LIG    1        2.019  -0.357  -1.055  0.00  0.00    -0.166 NA
ENDROOT
BRANCH   1   2
ATOM      2  S   LIG    1        1.704  -0.554  -2.794  0.00  0.00    +0.063 S 
ATOM      3  O   LIG    1        0.310  -0.966  -2.995  0.00  0.00    -0.153 OA
ATOM      4  O   LIG    1        2.797  -1.348  -3.367  0.00  0.00    -0.153 OA
BRANCH   2   5
ATOM      5  C   LIG    1        1.848   1.108  -3.436  0.00  0.00    +0.123 A 
ATOM      6  C   LIG    1        0.761   1.986  -3.370  0.00  0.00    +0.139 A 
ATOM      7  N   LIG    1        0.827   3.274  -3.795  0.00  0.00    -0.261 NA
ATOM      8  C   LIG    1        2.006   3.712  -4.306  0.00  0.00    +0.111 A 
ATOM      9  C   LIG    1        3.138   2.901  -4.409  0.00  0.00    +0.022 A 
ATOM     10  C   LIG    1        3.054   1.580  -3.965  0.00  0.00    +0.031 A 
ENDBRANCH   2   5
ENDBRANCH   1   2
BRANCH   1  11
ATOM     11  C   LIG    1        1.144  -1.035  -0.059  0.00  0.00    +0.165 C 
BRANCH  11  14
ATOM     12  C   LIG    1       -1.894   1.077  -0.432  0.00  0.00    +0.119 A 
ATOM     13  N   LIG    1       -0.595   0.691  -0.298  0.00  0.00    -0.236 NA
ATOM     14  C   LIG    1       -0.323  -0.635  -0.151  0.00  0.00    +0.059 A 
ATOM     15  C   LIG    1       -1.326  -1.606  -0.105  0.00  0.00    +0.025 A 
ATOM     16  C   LIG    1       -2.654  -1.199  -0.230  0.00  0.00    +0.005 A 
ATOM     17  C   LIG    1       -2.945   0.156  -0.401  0.00  0.00    +0.043 A 
BRANCH  12  18
ATOM     18  N   LIG    1       -2.209   2.432  -0.633  0.00  0.00    -0.319 N 
ATOM     19  H   LIG    1       -3.184   2.695  -0.600  0.00  0.00    +0.148 HD
BRANCH  18  20
ATOM     20  C   LIG    1       -1.219   3.501  -0.490  0.00  0.00    +0.223 C 
BRANCH  20  21
ATOM     21  C   LIG    1       -1.065   3.991   0.958  0.00  0.00    +0.325 C 
ATOM     22  O   LIG    1       -1.370   3.299   1.933  0.00  0.00    -0.249 OA
BRANCH  21  23
ATOM     23  O   LIG    1       -0.601   5.261   1.006  0.00  0.00    -0.461 OA
BRANCH  23  25
ATOM     24  C   LIG    1       -0.446   7.454   1.953  0.00  0.00    +0.052 C 
ATOM     25  C   LIG    1       -0.408   5.946   2.244  0.00  0.00    +0.170 C 
ATOM     26  C   LIG    1        0.920   5.526   2.899  0.00  0.00    +0.052 C 
ENDBRANCH  23  25
ENDBRANCH  21  23
ENDBRANCH  20  21
ENDBRANCH  18  20
ENDBRANCH  12  18
ENDBRANCH  11  14
ENDBRANCH   1  11
BRANCH   1  27
ATOM     27  C   LIG    1        3.432  -0.129  -0.664  0.00  0.00    +0.145 C 
BRANCH  27  28
ATOM     28  C   LIG    1        3.588   1.019   0.323  0.00  0.00    -0.032 A 
ATOM     29  C   LIG    1        4.198   0.788   1.556  0.00  0.00    +0.007 A 
ATOM     30  C   LIG    1        4.383   1.839   2.449  0.00  0.00    +0.028 A 
ATOM     31  C   LIG    1        3.971   3.133   2.104  0.00  0.00    +0.065 A 
ATOM     32  C   LIG    1        3.353   3.361   0.868  0.00  0.00    +0.028 A 
ATOM     33  C   LIG    1        3.159   2.305  -0.018  0.00  0.00    +0.007 A 
BRANCH  31  34
ATOM     34  N   LIG    1        4.189   4.214   2.989  0.00  0.00    -0.240 N 
ATOM     35  N   LIG    1        4.136   4.042   4.324  0.00  0.00    -0.175 NA
ATOM     36  C   LIG    1        4.383   5.224   4.842  0.00  0.00    +0.135 A 
ATOM     37  C   LIG    1        4.612   6.194   3.865  0.00  0.00    +0.041 A 
ATOM     38  C   LIG    1        4.488   5.519   2.666  0.00  0.00    +0.114 A 
ENDBRANCH  31  34
ENDBRANCH  27  28
ENDBRANCH   1  27
TORSDOF 12
