REMARK  Name = DB15058
REMARK                            x       y       z     vdW  Elec       q    Type
REMARK                         _______ _______ _______ _____ _____    ______ ____
ROOT
ATOM      1  C   LIG    1        5.766  -0.081   0.000  0.00  0.00    +0.110 A 
ATOM      2  S   LIG    1        6.673  -1.590   0.000  0.00  0.00    -0.067 S 
ATOM      3  C   LIG    1        8.158  -0.651   0.000  0.00  0.00    +0.043 A 
ATOM      4  C   LIG    1        9.493  -1.080   0.000  0.00  0.00    +0.062 A 
ATOM      5  C   LIG    1       10.493  -0.105   0.000  0.00  0.00    +0.118 A 
ATOM      6  C   LIG    1       10.175   1.254   0.000  0.00  0.00    +0.047 A 
ATOM      7  C   LIG    1        8.850   1.692   0.000  0.00  0.00    +0.032 A 
ATOM      8  C   LIG    1        7.829   0.729   0.000  0.00  0.00    +0.079 A 
ATOM      9  N   LIG    1        6.498   1.005   0.000  0.00  0.00    -0.239 NA
ENDROOT
BRANCH   1  13
ATOM     10  C   LIG    1        1.428   0.033   0.000  0.00  0.00    +0.063 A 
ATOM     11  C   LIG    1        2.181   1.214   0.000  0.00  0.00    +0.026 A 
ATOM     12  C   LIG    1        3.575   1.167   0.000  0.00  0.00    +0.012 A 
ATOM     13  C   LIG    1        4.259  -0.058   0.000  0.00  0.00    +0.010 A 
ATOM     14  C   LIG    1        3.497  -1.236   0.000  0.00  0.00    +0.050 A 
ATOM     15  C   LIG    1        2.102  -1.194   0.000  0.00  0.00    +0.145 A 
ATOM     16  F   LIG    1        1.412  -2.361   0.000  0.00  0.00    -0.204 F 
BRANCH  10  18
ATOM     17  C   LIG    1       -0.756   1.264   0.000  0.00  0.00    +0.125 C 
ATOM     18  N   LIG    1        0.021   0.033   0.000  0.00  0.00    -0.345 N 
ATOM     19  H   LIG    1       -0.472  -0.849   0.000  0.00  0.00    +0.146 HD
ENDBRANCH  10  18
ENDBRANCH   1  13
BRANCH   5  20
ATOM     20  O   LIG    1       11.808  -0.489   0.000  0.00  0.00    -0.507 OA
ATOM     21  H   LIG    1       11.924  -1.441   0.000  0.00  0.00    +0.292 HD
ENDBRANCH   5  20
TORSDOF 3
