REMARK  Name = DB15287
REMARK                            x       y       z     vdW  Elec       q    Type
REMARK                         _______ _______ _______ _____ _____    ______ ____
ROOT
ATOM      1  N   LIG    1        0.121   0.098   0.532  0.00  0.00    -0.181 N 
ENDROOT
BRANCH   1   2
ATOM      2  C   LIG    1       -0.698  -1.047   0.416  0.00  0.00    +0.145 A 
ATOM      3  C   LIG    1       -0.675  -2.087   1.371  0.00  0.00    +0.005 A 
ATOM      4  C   LIG    1       -1.438  -3.278   1.114  0.00  0.00    -0.010 A 
ATOM      5  C   LIG    1       -1.442  -4.419   1.967  0.00  0.00    +0.009 A 
ATOM      6  C   LIG    1       -2.211  -5.539   1.659  0.00  0.00    +0.001 A 
ATOM      7  C   LIG    1       -2.992  -5.568   0.510  0.00  0.00    +0.001 A 
ATOM      8  C   LIG    1       -3.015  -4.479  -0.355  0.00  0.00    +0.010 A 
ATOM      9  C   LIG    1       -2.240  -3.329  -0.068  0.00  0.00    +0.001 A 
ATOM     10  C   LIG    1       -2.220  -2.203  -0.912  0.00  0.00    +0.121 A 
ATOM     11  N   LIG    1       -1.478  -1.099  -0.693  0.00  0.00    -0.238 NA
BRANCH   3  12
ATOM     12  C   LIG    1        0.125  -1.983   2.673  0.00  0.00    +0.023 C 
ATOM     13  C   LIG    1        0.078  -0.757   3.565  0.00  0.00    +0.009 C 
ATOM     14  C   LIG    1       -0.540  -2.048   4.034  0.00  0.00    +0.009 C 
ENDBRANCH   3  12
ENDBRANCH   1   2
BRANCH   1  15
ATOM     15  S   LIG    1       -0.510   1.748   0.240  0.00  0.00    +0.076 S 
ATOM     16  O   LIG    1       -1.966   1.709   0.430  0.00  0.00    -0.150 OA
ATOM     17  O   LIG    1        0.318   2.670   1.027  0.00  0.00    -0.150 OA
BRANCH  15  21
ATOM     18  C   LIG    1        0.330   2.579  -4.215  0.00  0.00    +0.059 A 
ATOM     19  C   LIG    1       -0.877   1.982  -3.799  0.00  0.00    +0.017 A 
ATOM     20  C   LIG    1       -1.136   1.742  -2.453  0.00  0.00    +0.029 A 
ATOM     21  C   LIG    1       -0.191   2.090  -1.490  0.00  0.00    +0.109 A 
ATOM     22  C   LIG    1        1.009   2.684  -1.874  0.00  0.00    +0.029 A 
ATOM     23  C   LIG    1        1.265   2.926  -3.221  0.00  0.00    +0.017 A 
BRANCH  18  24
ATOM     24  C   LIG    1        0.612   2.837  -5.682  0.00  0.00    +0.337 C 
ATOM     25  O   LIG    1       -0.242   2.490  -6.533  0.00  0.00    -0.245 OA
BRANCH  24  26
ATOM     26  O   LIG    1        1.691   3.392  -6.002  0.00  0.00    -0.477 OA
ATOM     27  H   LIG    1        2.365   3.509  -5.362  0.00  0.00    +0.295 HD
ENDBRANCH  24  26
ENDBRANCH  18  24
ENDBRANCH  15  21
ENDBRANCH   1  15
BRANCH   1  28
ATOM     28  C   LIG    1        1.583  -0.070   0.550  0.00  0.00    +0.168 C 
BRANCH  28  29
ATOM     29  C   LIG    1        2.118  -1.079  -0.467  0.00  0.00    -0.028 A 
ATOM     30  C   LIG    1        1.801  -0.970  -1.824  0.00  0.00    +0.009 A 
ATOM     31  C   LIG    1        2.290  -1.902  -2.735  0.00  0.00    +0.046 A 
ATOM     32  C   LIG    1        3.108  -2.956  -2.298  0.00  0.00    +0.130 A 
ATOM     33  C   LIG    1        3.428  -3.051  -0.943  0.00  0.00    +0.046 A 
ATOM     34  C   LIG    1        2.940  -2.119  -0.032  0.00  0.00    +0.009 A 
BRANCH  32  35
ATOM     35  O   LIG    1        3.639  -3.933  -3.122  0.00  0.00    -0.406 OA
BRANCH  35  36
ATOM     36  C   LIG    1        3.362  -3.932  -4.522  0.00  0.00    +0.575 C 
ATOM     37  F   LIG    1        3.837  -2.836  -5.118  0.00  0.00    -0.133 F 
ATOM     38  F   LIG    1        2.059  -4.080  -4.769  0.00  0.00    -0.133 F 
ATOM     39  F   LIG    1        3.992  -4.981  -5.050  0.00  0.00    -0.133 F 
ENDBRANCH  35  36
ENDBRANCH  32  35
ENDBRANCH  28  29
ENDBRANCH   1  28
TORSDOF 10
