REMARK  Name = DB15379
REMARK                            x       y       z     vdW  Elec       q    Type
REMARK                         _______ _______ _______ _____ _____    ______ ____
ROOT
ATOM      1  C   LIG    1        1.622   0.008  -0.278  0.00  0.00    +0.176 C 
ATOM      2  C   LIG    1        2.285   0.645  -1.540  0.00  0.00    +0.155 C 
ATOM      3  C   LIG    1        2.296  -0.363  -2.707  0.00  0.00    +0.070 C 
ATOM      4  C   LIG    1        2.798  -1.757  -2.275  0.00  0.00    +0.173 C 
ATOM      5  C   LIG    1        1.969  -2.221  -1.069  0.00  0.00    +0.280 C 
ATOM      6  O   LIG    1        2.414  -3.494  -0.702  0.00  0.00    -0.340 OA
ATOM      7  C   LIG    1        1.627  -4.181   0.278  0.00  0.00    +0.183 C 
ATOM      8  C   LIG    1        0.751  -5.256  -0.399  0.00  0.00    +0.179 C 
ATOM      9  C   LIG    1        0.114  -6.232   0.622  0.00  0.00    +0.205 C 
ATOM     10  C   LIG    1        1.154  -6.717   1.654  0.00  0.00    +0.282 C 
ATOM     11  O   LIG    1        2.011  -7.598   0.992  0.00  0.00    -0.340 OA
ATOM     12  C   LIG    1        2.761  -8.562   1.735  0.00  0.00    +0.183 C 
ATOM     13  C   LIG    1        3.399  -9.462   0.659  0.00  0.00    +0.179 C 
ATOM     14  C   LIG    1        4.546  -8.717  -0.072  0.00  0.00    +0.205 C 
ATOM     15  C   LIG    1        5.542  -8.149   0.954  0.00  0.00    +0.282 C 
ATOM     16  O   LIG    1        6.448  -7.380   0.223  0.00  0.00    -0.340 OA
ATOM     17  C   LIG    1        7.844  -7.495   0.505  0.00  0.00    +0.183 C 
ATOM     18  C   LIG    1        8.553  -7.256  -0.849  0.00  0.00    +0.179 C 
ATOM     19  C   LIG    1       10.070  -7.037  -0.667  0.00  0.00    +0.201 C 
ATOM     20  C   LIG    1       10.328  -5.954   0.386  0.00  0.00    +0.282 C 
ATOM     21  O   LIG    1        9.786  -4.743  -0.076  0.00  0.00    -0.340 OA
ATOM     22  C   LIG    1       10.597  -3.567  -0.022  0.00  0.00    +0.183 C 
ATOM     23  C   LIG    1       10.181  -2.680  -1.215  0.00  0.00    +0.179 C 
ATOM     24  C   LIG    1       10.883  -1.305  -1.153  0.00  0.00    +0.201 C 
ATOM     25  C   LIG    1       10.707  -0.652   0.226  0.00  0.00    +0.282 C 
ATOM     26  O   LIG    1        9.374  -0.240   0.377  0.00  0.00    -0.340 OA
ATOM     27  C   LIG    1        8.995   0.421   1.593  0.00  0.00    +0.184 C 
ATOM     28  C   LIG    1        9.523   1.883   1.693  0.00  0.00    +0.183 C 
ATOM     29  C   LIG    1        8.791   2.693   2.797  0.00  0.00    +0.201 C 
ATOM     30  C   LIG    1        7.271   2.523   2.705  0.00  0.00    +0.282 C 
ATOM     31  O   LIG    1        6.815   3.114   1.518  0.00  0.00    -0.340 OA
ATOM     32  C   LIG    1        5.478   3.626   1.472  0.00  0.00    +0.183 C 
ATOM     33  C   LIG    1        5.261   4.170   0.040  0.00  0.00    +0.179 C 
ATOM     34  C   LIG    1        4.949   3.034  -0.968  0.00  0.00    +0.201 C 
ATOM     35  C   LIG    1        3.811   2.150  -0.426  0.00  0.00    +0.282 C 
ATOM     36  O   LIG    1        4.168   1.638   0.834  0.00  0.00    -0.341 OA
ATOM     37  C   LIG    1        4.354   2.618   1.865  0.00  0.00    +0.178 C 
ATOM     38  O   LIG    1        6.962   1.154   2.765  0.00  0.00    -0.341 OA
ATOM     39  C   LIG    1        7.445   0.397   1.644  0.00  0.00    +0.178 C 
ATOM     40  O   LIG    1       11.125  -1.528   1.244  0.00  0.00    -0.341 OA
ATOM     41  C   LIG    1       10.412  -2.770   1.298  0.00  0.00    +0.178 C 
ATOM     42  O   LIG    1        9.750  -6.350   1.601  0.00  0.00    -0.341 OA
ATOM     43  C   LIG    1        8.318  -6.465   1.575  0.00  0.00    +0.178 C 
ATOM     44  O   LIG    1        4.864  -7.310   1.857  0.00  0.00    -0.341 OA
ATOM     45  C   LIG    1        3.854  -7.943   2.654  0.00  0.00    +0.178 C 
ATOM     46  O   LIG    1        1.826  -5.623   2.226  0.00  0.00    -0.341 OA
ATOM     47  C   LIG    1        2.582  -4.839   1.294  0.00  0.00    +0.178 C 
ATOM     48  O   LIG    1        3.625   1.094  -1.324  0.00  0.00    -0.343 OA
ATOM     49  O   LIG    1        2.136  -1.307  -0.013  0.00  0.00    -0.341 OA
ENDROOT
BRANCH   4  50
ATOM     50  O   LIG    1        4.192  -1.761  -2.018  0.00  0.00    -0.387 OA
ATOM     51  H   LIG    1        4.460  -2.662  -1.824  0.00  0.00    +0.210 HD
ENDBRANCH   4  50
BRANCH   8  52
ATOM     52  O   LIG    1       -0.258  -4.658  -1.194  0.00  0.00    -0.386 OA
ATOM     53  H   LIG    1       -0.841  -4.156  -0.620  0.00  0.00    +0.210 HD
ENDBRANCH   8  52
BRANCH  13  54
ATOM     54  O   LIG    1        3.799 -10.729   1.149  0.00  0.00    -0.386 OA
ATOM     55  H   LIG    1        3.147 -11.029   1.787  0.00  0.00    +0.210 HD
ENDBRANCH  13  54
BRANCH  18  56
ATOM     56  O   LIG    1        8.292  -8.325  -1.743  0.00  0.00    -0.386 OA
ATOM     57  H   LIG    1        8.943  -8.295  -2.449  0.00  0.00    +0.210 HD
ENDBRANCH  18  56
BRANCH  19  58
ATOM     58  O   LIG    1       10.739  -6.740  -1.880  0.00  0.00    -0.384 OA
ATOM     59  H   LIG    1       10.259  -6.038  -2.328  0.00  0.00    +0.210 HD
ENDBRANCH  19  58
BRANCH  23  60
ATOM     60  O   LIG    1       10.455  -3.334  -2.444  0.00  0.00    -0.386 OA
ATOM     61  H   LIG    1       10.459  -2.675  -3.143  0.00  0.00    +0.210 HD
ENDBRANCH  23  60
BRANCH  24  62
ATOM     62  O   LIG    1       10.488  -0.432  -2.197  0.00  0.00    -0.384 OA
ATOM     63  H   LIG    1        9.528  -0.421  -2.239  0.00  0.00    +0.210 HD
ENDBRANCH  24  62
BRANCH  29  64
ATOM     64  O   LIG    1        9.151   4.062   2.786  0.00  0.00    -0.384 OA
ATOM     65  H   LIG    1        9.174   4.362   1.874  0.00  0.00    +0.210 HD
ENDBRANCH  29  64
BRANCH  33  66
ATOM     66  O   LIG    1        4.287   5.198   0.005  0.00  0.00    -0.386 OA
ATOM     67  H   LIG    1        4.710   6.009  -0.288  0.00  0.00    +0.210 HD
ENDBRANCH  33  66
BRANCH  34  68
ATOM     68  O   LIG    1        6.111   2.292  -1.298  0.00  0.00    -0.384 OA
ATOM     69  H   LIG    1        5.879   1.660  -1.982  0.00  0.00    +0.210 HD
ENDBRANCH  34  68
BRANCH   1  70
ATOM     70  C   LIG    1        0.078   0.053  -0.304  0.00  0.00    +0.194 C 
BRANCH  70  71
ATOM     71  O   LIG    1       -0.346   1.403  -0.155  0.00  0.00    -0.375 OA
BRANCH  71  72
ATOM     72  C   LIG    1       -1.757   1.572  -0.176  0.00  0.00    +0.190 C 
BRANCH  72  74
ATOM     73  C   LIG    1       -3.606   3.297   0.223  0.00  0.00    +0.040 C 
ATOM     74  C   LIG    1       -2.098   3.056   0.054  0.00  0.00    +0.137 C 
BRANCH  74  75
ATOM     75  O   LIG    1       -1.646   3.818  -1.049  0.00  0.00    -0.390 OA
ATOM     76  H   LIG    1       -0.708   3.652  -1.168  0.00  0.00    +0.210 HD
ENDBRANCH  74  75
ENDBRANCH  72  74
ENDBRANCH  71  72
ENDBRANCH  70  71
ENDBRANCH   1  70
BRANCH   9  77
ATOM     77  O   LIG    1       -0.466  -7.315  -0.109  0.00  0.00    -0.366 OA
BRANCH  77  78
ATOM     78  C   LIG    1       -1.300  -8.203   0.627  0.00  0.00    +0.191 C 
BRANCH  78  79
ATOM     79  C   LIG    1       -1.781  -9.330  -0.307  0.00  0.00    +0.137 C 
ATOM     80  C   LIG    1       -2.826 -10.242   0.355  0.00  0.00    +0.040 C 
BRANCH  79  81
ATOM     81  O   LIG    1       -0.674 -10.126  -0.687  0.00  0.00    -0.390 OA
ATOM     82  H   LIG    1       -0.043  -9.566  -1.147  0.00  0.00    +0.210 HD
ENDBRANCH  79  81
ENDBRANCH  78  79
ENDBRANCH  77  78
ENDBRANCH   9  77
BRANCH  14  83
ATOM     83  O   LIG    1        4.027  -7.646  -0.868  0.00  0.00    -0.366 OA
BRANCH  83  84
ATOM     84  C   LIG    1        4.020  -7.814  -2.284  0.00  0.00    +0.191 C 
BRANCH  84  85
ATOM     85  C   LIG    1        2.995  -8.861  -2.770  0.00  0.00    +0.137 C 
ATOM     86  C   LIG    1        3.045  -9.070  -4.291  0.00  0.00    +0.040 C 
BRANCH  85  87
ATOM     87  O   LIG    1        1.693  -8.430  -2.423  0.00  0.00    -0.390 OA
ATOM     88  H   LIG    1        1.685  -8.209  -1.488  0.00  0.00    +0.210 HD
ENDBRANCH  85  87
ENDBRANCH  84  85
ENDBRANCH  83  84
ENDBRANCH  14  83
BRANCH  28  89
ATOM     89  O   LIG    1       10.950   1.994   1.806  0.00  0.00    -0.369 OA
BRANCH  89  90
ATOM     90  C   LIG    1       11.584   1.498   2.988  0.00  0.00    +0.191 C 
BRANCH  90  91
ATOM     91  C   LIG    1       13.114   1.671   2.900  0.00  0.00    +0.137 C 
ATOM     92  C   LIG    1       13.760   0.933   1.716  0.00  0.00    +0.040 C 
BRANCH  91  93
ATOM     93  O   LIG    1       13.445   3.044   2.844  0.00  0.00    -0.390 OA
ATOM     94  H   LIG    1       13.021   3.492   3.579  0.00  0.00    +0.210 HD
ENDBRANCH  91  93
ENDBRANCH  90  91
ENDBRANCH  89  90
ENDBRANCH  28  89
BRANCH  39  95
ATOM     95  C   LIG    1        6.867  -1.030   1.734  0.00  0.00    +0.190 C 
BRANCH  95  96
ATOM     96  O   LIG    1        5.457  -1.000   1.663  0.00  0.00    -0.392 OA
ATOM     97  H   LIG    1        5.198  -0.643   0.809  0.00  0.00    +0.210 HD
ENDBRANCH  95  96
ENDBRANCH  39  95
BRANCH  43  98
ATOM     98  C   LIG    1        7.868  -6.751   3.025  0.00  0.00    +0.190 C 
BRANCH  98  99
ATOM     99  O   LIG    1        8.234  -8.047   3.456  0.00  0.00    -0.392 OA
ATOM    100  H   LIG    1        7.730  -8.692   2.956  0.00  0.00    +0.210 HD
ENDBRANCH  98  99
ENDBRANCH  43  98
BRANCH  45 101
ATOM    101  C   LIG    1        4.447  -8.890   3.728  0.00  0.00    +0.190 C 
BRANCH 101 102
ATOM    102  O   LIG    1        3.458  -9.302   4.650  0.00  0.00    -0.392 OA
ATOM    103  H   LIG    1        3.874  -9.846   5.323  0.00  0.00    +0.210 HD
ENDBRANCH 101 102
ENDBRANCH  45 101
BRANCH  41 104
ATOM    104  C   LIG    1       10.861  -3.499   2.576  0.00  0.00    +0.194 C 
BRANCH 104 105
ATOM    105  O   LIG    1       12.169  -4.031   2.417  0.00  0.00    -0.375 OA
BRANCH 105 106
ATOM    106  C   LIG    1       12.592  -4.838   3.507  0.00  0.00    +0.190 C 
BRANCH 106 107
ATOM    107  C   LIG    1       14.012  -5.365   3.234  0.00  0.00    +0.137 C 
ATOM    108  C   LIG    1       14.075  -6.344   2.049  0.00  0.00    +0.040 C 
BRANCH 107 109
ATOM    109  O   LIG    1       14.490  -6.027   4.389  0.00  0.00    -0.390 OA
ATOM    110  H   LIG    1       13.931  -6.790   4.556  0.00  0.00    +0.210 HD
ENDBRANCH 107 109
ENDBRANCH 106 107
ENDBRANCH 105 106
ENDBRANCH 104 105
ENDBRANCH  41 104
BRANCH  47 111
ATOM    111  C   LIG    1        3.410  -3.798   2.073  0.00  0.00    +0.190 C 
BRANCH 111 112
ATOM    112  O   LIG    1        4.389  -4.424   2.877  0.00  0.00    -0.392 OA
ATOM    113  H   LIG    1        5.010  -4.876   2.301  0.00  0.00    +0.210 HD
ENDBRANCH 111 112
ENDBRANCH  47 111
BRANCH  37 114
ATOM    114  C   LIG    1        3.040   3.290   2.327  0.00  0.00    +0.194 C 
BRANCH 114 115
ATOM    115  O   LIG    1        2.151   2.291   2.807  0.00  0.00    -0.375 OA
BRANCH 115 116
ATOM    116  C   LIG    1        0.905   2.802   3.268  0.00  0.00    +0.190 C 
BRANCH 116 117
ATOM    117  C   LIG    1        0.065   1.682   3.914  0.00  0.00    +0.137 C 
ATOM    118  C   LIG    1        0.767   0.987   5.092  0.00  0.00    +0.040 C 
BRANCH 117 119
ATOM    119  O   LIG    1       -0.295   0.719   2.945  0.00  0.00    -0.390 OA
ATOM    120  H   LIG    1       -0.667   1.174   2.186  0.00  0.00    +0.210 HD
ENDBRANCH 117 119
ENDBRANCH 116 117
ENDBRANCH 115 116
ENDBRANCH 114 115
ENDBRANCH  37 114
TORSDOF 45
