REMARK  Name = DB15163
REMARK                            x       y       z     vdW  Elec       q    Type
REMARK                         _______ _______ _______ _____ _____    ______ ____
ROOT
ATOM      1  C   LIG    1        1.694  -0.022  -0.736  0.00  0.00    +0.171 C 
ENDROOT
BRANCH   1   7
ATOM      2  C   LIG    1       -1.189   3.430   3.358  0.00  0.00    +0.403 C 
ATOM      3  N   LIG    1       -0.786   2.970   2.088  0.00  0.00    -0.264 N 
ATOM      4  C   LIG    1        0.646   2.697   1.823  0.00  0.00    +0.130 C 
ATOM      5  C   LIG    1        0.911   2.700   0.299  0.00  0.00    +0.127 C 
ATOM      6  N   LIG    1       -0.045   1.786  -0.336  0.00  0.00    -0.297 N 
ATOM      7  C   LIG    1        0.260   0.577  -0.889  0.00  0.00    +0.237 C 
ATOM      8  O   LIG    1       -0.584  -0.092  -1.492  0.00  0.00    -0.274 OA
ATOM      9  C   LIG    1       -1.435   2.249  -0.204  0.00  0.00    +0.127 C 
ATOM     10  C   LIG    1       -1.803   2.238   1.301  0.00  0.00    +0.130 C 
ATOM     11  O   LIG    1       -2.355   3.480   3.760  0.00  0.00    -0.226 OA
BRANCH   2  12
ATOM     12  O   LIG    1       -0.129   3.812   4.122  0.00  0.00    -0.450 OA
BRANCH  12  13
ATOM     13  C   LIG    1       -0.298   4.245   5.466  0.00  0.00    +0.234 C 
BRANCH  13  14
ATOM     14  C   LIG    1        1.071   4.382   6.152  0.00  0.00    +0.041 C 
BRANCH  14  16
ATOM     15  C   LIG    1        3.302   5.634   6.269  0.00  0.00    +0.004 C 
ATOM     16  C   LIG    1        1.988   5.436   5.503  0.00  0.00    -0.000 C 
ENDBRANCH  14  16
ENDBRANCH  13  14
ENDBRANCH  12  13
ENDBRANCH   2  12
ENDBRANCH   1   7
BRANCH   1  17
ATOM     17  N   LIG    1        2.050  -0.089   0.686  0.00  0.00    -0.298 N 
ATOM     18  H   LIG    1        1.334  -0.471   1.286  0.00  0.00    +0.150 HD
ATOM     19  C   LIG    1        3.196   0.341   1.250  0.00  0.00    +0.263 C 
ATOM     20  O   LIG    1        4.134   0.812   0.602  0.00  0.00    -0.269 OA
BRANCH  19  21
ATOM     21  C   LIG    1        3.237   0.291   2.760  0.00  0.00    +0.131 A 
ATOM     22  N   LIG    1        4.098   1.147   3.375  0.00  0.00    -0.223 NA
ATOM     23  C   LIG    1        4.115   1.161   4.736  0.00  0.00    +0.162 A 
ATOM     24  N   LIG    1        3.317   0.382   5.519  0.00  0.00    -0.213 NA
ATOM     25  C   LIG    1        2.443  -0.459   4.902  0.00  0.00    +0.126 A 
ATOM     26  C   LIG    1        2.395  -0.551   3.504  0.00  0.00    +0.076 A 
BRANCH  23  27
ATOM     27  C   LIG    1        5.071   2.102   5.418  0.00  0.00    +0.019 A 
ATOM     28  C   LIG    1        5.241   2.079   6.814  0.00  0.00    +0.011 A 
ATOM     29  C   LIG    1        6.122   2.951   7.447  0.00  0.00    +0.001 A 
ATOM     30  C   LIG    1        6.851   3.864   6.692  0.00  0.00    +0.000 A 
ATOM     31  C   LIG    1        6.705   3.908   5.310  0.00  0.00    +0.001 A 
ATOM     32  C   LIG    1        5.823   3.034   4.681  0.00  0.00    +0.011 A 
ENDBRANCH  23  27
BRANCH  25  33
ATOM     33  N   LIG    1        1.654  -1.279   5.725  0.00  0.00    -0.313 N 
ATOM     34  C   LIG    1        0.489  -2.048   5.294  0.00  0.00    +0.138 C 
ATOM     35  C   LIG    1       -0.083  -2.845   6.476  0.00  0.00    +0.137 C 
ATOM     36  C   LIG    1        0.645  -2.287   7.698  0.00  0.00    +0.052 C 
ATOM     37  C   LIG    1        1.481  -1.124   7.167  0.00  0.00    +0.109 C 
BRANCH  35  38
ATOM     38  O   LIG    1        0.236  -4.232   6.385  0.00  0.00    -0.378 OA
ATOM     39  C   LIG    1       -0.532  -4.963   5.438  0.00  0.00    +0.194 C 
ENDBRANCH  35  38
ENDBRANCH  25  33
ENDBRANCH  19  21
ENDBRANCH   1  17
BRANCH   1  40
ATOM     40  C   LIG    1        1.859  -1.404  -1.432  0.00  0.00    +0.158 C 
BRANCH  40  41
ATOM     41  P   LIG    1        3.620  -2.059  -1.452  0.00  0.00    +0.330 P 
ATOM     42  O   LIG    1        4.501  -1.094  -2.212  0.00  0.00    -0.259 OA
BRANCH  41  43
ATOM     43  O   LIG    1        3.312  -3.407  -2.464  0.00  0.00    -0.324 OA
ATOM     44  H   LIG    1        2.997  -4.269  -2.132  0.00  0.00    +0.220 HD
ENDBRANCH  41  43
BRANCH  41  45
ATOM     45  O   LIG    1        3.971  -2.591  -0.079  0.00  0.00    -0.324 OA
ATOM     46  H   LIG    1        3.273  -3.192   0.223  0.00  0.00    +0.220 HD
ENDBRANCH  41  45
ENDBRANCH  40  41
ENDBRANCH   1  40
TORSDOF 14
