REMARK  Name = DB15130
REMARK                            x       y       z     vdW  Elec       q    Type
REMARK                         _______ _______ _______ _____ _____    ______ ____
ROOT
ATOM      1  C   LIG    1        1.894  -1.550   0.004  0.00  0.00    -0.067 C 
ATOM      2  C   LIG    1        1.600  -2.215  -1.370  0.00  0.00    +0.028 C 
ATOM      3  C   LIG    1        2.417  -3.494  -1.462  0.00  0.00    +0.013 A 
ATOM      4  S   LIG    1        2.167  -4.776  -2.612  0.00  0.00    -0.057 S 
ATOM      5  C   LIG    1        3.567  -5.560  -1.958  0.00  0.00    +0.156 A 
ATOM      6  N   LIG    1        4.164  -4.919  -0.987  0.00  0.00    -0.230 NA
ATOM      7  C   LIG    1        3.556  -3.783  -0.697  0.00  0.00    +0.054 A 
ATOM      8  C   LIG    1        4.064  -2.865   0.411  0.00  0.00    +0.055 C 
ATOM      9  C   LIG    1        3.423  -1.466   0.243  0.00  0.00    -0.009 C 
ENDROOT
BRANCH   1  10
ATOM     10  N   LIG    1        1.354  -0.106  -0.005  0.00  0.00    +0.381 N 
ATOM     11  H   LIG    1        1.730   0.375   0.799  0.00  0.00    -0.086 HD
ATOM     12  H   LIG    1        1.732   0.364  -0.815  0.00  0.00    -0.086 HD
BRANCH  10  13
ATOM     13  C   LIG    1       -0.177   0.030  -0.021  0.00  0.00    -0.082 C 
BRANCH  13  15
ATOM     14  C   LIG    1       -2.070   1.738   0.073  0.00  0.00    +0.002 C 
ATOM     15  C   LIG    1       -0.552   1.517   0.065  0.00  0.00    -0.022 C 
ENDBRANCH  13  15
ENDBRANCH  10  13
ENDBRANCH   1  10
BRANCH   5  16
ATOM     16  N   LIG    1        3.976  -6.759  -2.463  0.00  0.00    -0.338 N 
ATOM     17  H   LIG    1        3.475  -7.221  -3.209  0.00  0.00    +0.144 HD
ATOM     18  H   LIG    1        4.792  -7.232  -2.103  0.00  0.00    +0.144 HD
ENDBRANCH   5  16
TORSDOF 4
