REMARK  Name = DB15010
REMARK                            x       y       z     vdW  Elec       q    Type
REMARK                         _______ _______ _______ _____ _____    ______ ____
ROOT
ATOM      1  C   LIG    1        1.009  -4.912   1.408  0.00  0.00    +0.036 C 
ENDROOT
BRANCH   1   3
ATOM      2  C   LIG    1        3.010  -3.320   1.643  0.00  0.00    -0.027 C 
ATOM      3  C   LIG    1        2.482  -4.545   1.458  0.00  0.00    -0.030 C 
BRANCH   2   4
ATOM      4  C   LIG    1        2.260  -2.022   1.883  0.00  0.00    +0.053 C 
BRANCH   4   6
ATOM      5  C   LIG    1        1.048  -0.690   0.037  0.00  0.00    -0.027 C 
ATOM      6  C   LIG    1        2.160  -1.157   0.637  0.00  0.00    -0.027 C 
BRANCH   5   7
ATOM      7  C   LIG    1       -0.399  -0.892   0.457  0.00  0.00    +0.053 C 
BRANCH   7   9
ATOM      8  C   LIG    1       -2.052   1.070   0.326  0.00  0.00    -0.027 C 
ATOM      9  C   LIG    1       -1.050   0.398   0.924  0.00  0.00    -0.027 C 
BRANCH   8  10
ATOM     10  C   LIG    1       -2.796   0.679  -0.938  0.00  0.00    +0.053 C 
BRANCH  10  12
ATOM     11  C   LIG    1       -2.761   2.423  -2.820  0.00  0.00    -0.027 C 
ATOM     12  C   LIG    1       -2.249   1.351  -2.184  0.00  0.00    -0.027 C 
BRANCH  11  13
ATOM     13  C   LIG    1       -3.974   3.237  -2.408  0.00  0.00    +0.053 C 
BRANCH  13  15
ATOM     14  C   LIG    1       -6.404   2.459  -2.773  0.00  0.00    -0.027 C 
ATOM     15  C   LIG    1       -5.218   2.915  -3.220  0.00  0.00    -0.027 C 
BRANCH  14  16
ATOM     16  C   LIG    1       -6.808   2.160  -1.338  0.00  0.00    +0.053 C 
BRANCH  16  18
ATOM     17  C   LIG    1       -8.237   0.089  -0.815  0.00  0.00    -0.031 C 
ATOM     18  C   LIG    1       -7.058   0.684  -1.084  0.00  0.00    -0.027 C 
BRANCH  17  20
ATOM     19  C   LIG    1      -10.121   0.885   0.709  0.00  0.00    +0.008 C 
ATOM     20  C   LIG    1       -9.602   0.750  -0.728  0.00  0.00    +0.023 C 
ENDBRANCH  17  20
ENDBRANCH  16  18
ENDBRANCH  14  16
ENDBRANCH  13  15
ENDBRANCH  11  13
ENDBRANCH  10  12
ENDBRANCH   8  10
ENDBRANCH   7   9
ENDBRANCH   5   7
ENDBRANCH   4   6
ENDBRANCH   2   4
ENDBRANCH   1   3
BRANCH   1  21
ATOM     21  C   LIG    1        0.540  -5.705   2.645  0.00  0.00    +0.100 C 
BRANCH  21  22
ATOM     22  C   LIG    1       -0.903  -6.217   2.536  0.00  0.00    +0.213 C 
ATOM     23  N   LIG    1       -1.130  -7.460   2.996  0.00  0.00    -0.314 N 
ATOM     24  H   LIG    1       -0.354  -7.987   3.368  0.00  0.00    +0.149 HD
ATOM     25  O   LIG    1       -1.785  -5.500   2.058  0.00  0.00    -0.276 OA
BRANCH  23  26
ATOM     26  C   LIG    1       -2.425  -8.134   2.982  0.00  0.00    +0.123 C 
BRANCH  26  27
ATOM     27  C   LIG    1       -3.379  -7.675   4.107  0.00  0.00    +0.123 C 
BRANCH  27  28
ATOM     28  N   LIG    1       -4.728  -8.230   3.994  0.00  0.00    -0.310 N 
ATOM     29  H   LIG    1       -5.456  -7.579   3.741  0.00  0.00    +0.149 HD
ATOM     30  C   LIG    1       -5.069  -9.519   4.198  0.00  0.00    +0.248 C 
ATOM     31  O   LIG    1       -4.256 -10.383   4.534  0.00  0.00    -0.270 OA
BRANCH  30  32
ATOM     32  C   LIG    1       -6.531  -9.858   3.991  0.00  0.00    +0.078 A 
ATOM     33  C   LIG    1       -7.263  -9.208   2.981  0.00  0.00    +0.017 A 
ATOM     34  C   LIG    1       -8.603  -9.515   2.754  0.00  0.00    +0.001 A 
ATOM     35  C   LIG    1       -9.238 -10.479   3.531  0.00  0.00    +0.004 A 
ATOM     36  C   LIG    1       -8.532 -11.135   4.536  0.00  0.00    +0.046 A 
ATOM     37  C   LIG    1       -7.188 -10.835   4.772  0.00  0.00    +0.129 A 
BRANCH  37  38
ATOM     38  O   LIG    1       -6.561 -11.510   5.790  0.00  0.00    -0.506 OA
ATOM     39  H   LIG    1       -7.133 -12.143   6.229  0.00  0.00    +0.292 HD
ENDBRANCH  37  38
ENDBRANCH  30  32
ENDBRANCH  27  28
ENDBRANCH  26  27
ENDBRANCH  23  26
ENDBRANCH  21  22
ENDBRANCH   1  21
TORSDOF 19
