REMARK  Name = DB15569
REMARK                            x       y       z     vdW  Elec       q    Type
REMARK                         _______ _______ _______ _____ _____    ______ ____
ROOT
ATOM      1  N   LIG    1        1.211   0.326   0.471  0.00  0.00    -0.242 N 
ATOM      2  C   LIG    1        2.023   0.748  -0.630  0.00  0.00    +0.153 A 
ATOM      3  N   LIG    1        1.429   1.355  -1.698  0.00  0.00    -0.225 NA
ATOM      4  C   LIG    1        2.207   1.826  -2.709  0.00  0.00    +0.115 A 
ATOM      5  C   LIG    1        3.604   1.721  -2.675  0.00  0.00    +0.150 A 
ATOM      6  F   LIG    1        4.368   2.203  -3.683  0.00  0.00    -0.203 F 
ATOM      7  C   LIG    1        4.210   1.102  -1.582  0.00  0.00    +0.055 A 
ATOM      8  C   LIG    1        3.416   0.577  -0.552  0.00  0.00    +0.061 A 
ATOM      9  C   LIG    1        3.917  -0.071   0.680  0.00  0.00    +0.138 A 
ATOM     10  N   LIG    1        3.157  -0.324   1.688  0.00  0.00    -0.177 NA
ATOM     11  C   LIG    1        1.756  -0.182   1.642  0.00  0.00    +0.356 A 
ATOM     12  O   LIG    1        0.999  -0.487   2.568  0.00  0.00    -0.244 OA
ENDROOT
BRANCH   9  13
ATOM     13  N   LIG    1        5.291  -0.337   0.762  0.00  0.00    -0.309 N 
ATOM     14  C   LIG    1        5.941  -1.494   0.081  0.00  0.00    +0.089 C 
ATOM     15  C   LIG    1        5.273  -1.950  -1.241  0.00  0.00    +0.029 C 
ATOM     16  C   LIG    1        7.440  -1.198  -0.173  0.00  0.00    +0.130 C 
ATOM     17  N   LIG    1        8.079  -0.911   1.123  0.00  0.00    -0.295 N 
ATOM     18  C   LIG    1        9.114  -1.607   1.677  0.00  0.00    +0.239 C 
ATOM     19  O   LIG    1        9.687  -1.222   2.700  0.00  0.00    -0.271 OA
ATOM     20  C   LIG    1        7.489   0.246   1.812  0.00  0.00    +0.127 C 
ATOM     21  C   LIG    1        5.990  -0.060   2.034  0.00  0.00    +0.126 C 
BRANCH  18  22
ATOM     22  C   LIG    1        9.507  -2.852   1.043  0.00  0.00    +0.060 C 
ATOM     23  C   LIG    1       10.746  -3.364   1.162  0.00  0.00    +0.013 C 
ENDBRANCH  18  22
ENDBRANCH   9  13
BRANCH   1  25
ATOM     24  C   LIG    1       -0.918  -0.720  -0.212  0.00  0.00    +0.068 A 
ATOM     25  C   LIG    1       -0.203   0.373   0.328  0.00  0.00    +0.077 A 
ATOM     26  C   LIG    1       -0.920   1.529   0.702  0.00  0.00    -0.023 A 
ATOM     27  C   LIG    1       -0.224   2.756   1.277  0.00  0.00    +0.046 C 
ATOM     28  C   LIG    1       -2.308   1.548   0.539  0.00  0.00    +0.025 A 
ATOM     29  C   LIG    1       -2.941   0.426   0.011  0.00  0.00    +0.111 A 
ATOM     30  N   LIG    1       -2.271  -0.692  -0.359  0.00  0.00    -0.258 NA
BRANCH  24  32
ATOM     31  C   LIG    1       -0.696  -2.500  -2.054  0.00  0.00    +0.014 C 
ATOM     32  C   LIG    1       -0.242  -2.030  -0.656  0.00  0.00    +0.034 C 
ATOM     33  C   LIG    1       -0.432  -3.140   0.394  0.00  0.00    +0.014 C 
ENDBRANCH  24  32
ENDBRANCH   1  25
BRANCH   4  34
ATOM     34  C   LIG    1        1.475   2.479  -3.832  0.00  0.00    +0.080 A 
ATOM     35  C   LIG    1        1.734   3.821  -4.154  0.00  0.00    +0.136 A 
ATOM     36  F   LIG    1        2.634   4.539  -3.442  0.00  0.00    -0.205 F 
ATOM     37  C   LIG    1        1.058   4.447  -5.202  0.00  0.00    +0.039 A 
ATOM     38  C   LIG    1        0.113   3.744  -5.944  0.00  0.00    +0.006 A 
ATOM     39  C   LIG    1       -0.155   2.411  -5.640  0.00  0.00    +0.046 A 
ATOM     40  C   LIG    1        0.520   1.779  -4.595  0.00  0.00    +0.129 A 
BRANCH  40  41
ATOM     41  O   LIG    1        0.238   0.458  -4.348  0.00  0.00    -0.506 OA
ATOM     42  H   LIG    1       -0.435   0.103  -4.933  0.00  0.00    +0.292 HD
ENDBRANCH  40  41
ENDBRANCH   4  34
TORSDOF 6
