REMARK  Name = DB15167
REMARK                            x       y       z     vdW  Elec       q    Type
REMARK                         _______ _______ _______ _____ _____    ______ ____
ROOT
ATOM      1  C   LIG    1       -2.220   1.194   0.071  0.00  0.00    +0.163 A 
ATOM      2  C   LIG    1       -2.906  -0.029   0.060  0.00  0.00    +0.053 A 
ATOM      3  C   LIG    1       -2.217  -1.233  -0.076  0.00  0.00    -0.043 A 
ATOM      4  C   LIG    1       -0.830  -1.220  -0.215  0.00  0.00    +0.020 A 
ATOM      5  C   LIG    1       -0.112  -0.014  -0.206  0.00  0.00    +0.082 A 
ATOM      6  C   LIG    1       -0.820   1.196  -0.027  0.00  0.00    +0.174 A 
ENDROOT
BRANCH   5   7
ATOM      7  C   LIG    1        1.386  -0.029  -0.426  0.00  0.00    +0.248 C 
ATOM      8  N   LIG    1        2.051  -1.067   0.117  0.00  0.00    -0.313 N 
ATOM      9  H   LIG    1        1.525  -1.758   0.633  0.00  0.00    +0.149 HD
ATOM     10  O   LIG    1        1.944   0.868  -1.060  0.00  0.00    -0.270 OA
BRANCH   8  11
ATOM     11  C   LIG    1        3.499  -1.271   0.042  0.00  0.00    +0.089 C 
BRANCH  11  12
ATOM     12  C   LIG    1        4.029  -1.633  -1.365  0.00  0.00    -0.051 C 
ATOM     13  N   LIG    1        5.528  -2.004  -1.460  0.00  0.00    +0.385 N 
ATOM     14  H   LIG    1        5.754  -2.455  -0.585  0.00  0.00    -0.081 HD
ATOM     15  C   LIG    1        5.659  -3.098  -2.547  0.00  0.00    -0.078 C 
ATOM     16  C   LIG    1        4.266  -3.225  -3.162  0.00  0.00    -0.020 C 
ATOM     17  C   LIG    1        3.319  -2.807  -2.050  0.00  0.00    -0.016 C 
BRANCH  13  18
ATOM     18  C   LIG    1        6.448  -0.782  -1.667  0.00  0.00    -0.051 C 
BRANCH  18  19
ATOM     19  C   LIG    1        7.923  -1.126  -1.570  0.00  0.00    -0.053 C 
ATOM     20  C   LIG    1        8.797  -1.035  -2.584  0.00  0.00    +0.002 C 
ENDBRANCH  18  19
ENDBRANCH  13  18
ENDBRANCH  11  12
ENDBRANCH   8  11
ENDBRANCH   5   7
BRANCH   1  22
ATOM     21  C   LIG    1       -4.263   2.483   0.288  0.00  0.00    +0.277 C 
ATOM     22  O   LIG    1       -2.844   2.424   0.190  0.00  0.00    -0.491 OA
ENDBRANCH   1  22
BRANCH   6  23
ATOM     23  O   LIG    1       -0.186   2.418  -0.053  0.00  0.00    -0.491 OA
ATOM     24  C   LIG    1        0.413   2.798   1.179  0.00  0.00    +0.277 C 
ENDBRANCH   6  23
BRANCH   3  25
ATOM     25  C   LIG    1       -2.978  -2.551  -0.083  0.00  0.00    +0.038 C 
BRANCH  25  26
ATOM     26  C   LIG    1       -3.223  -3.099   1.336  0.00  0.00    +0.038 C 
BRANCH  26  27
ATOM     27  C   LIG    1       -3.994  -4.428   1.348  0.00  0.00    +0.213 C 
ATOM     28  F   LIG    1       -5.209  -4.343   0.808  0.00  0.00    -0.249 F 
ENDBRANCH  26  27
ENDBRANCH  25  26
ENDBRANCH   3  25
TORSDOF 10
