REMARK  Name = DB15399
REMARK                            x       y       z     vdW  Elec       q    Type
REMARK                         _______ _______ _______ _____ _____    ______ ____
ROOT
ATOM      1  C   LIG    1        1.281  -0.370   1.973  0.00  0.00    +0.238 A 
ATOM      2  N   LIG    1        1.793   0.870   1.765  0.00  0.00    -0.196 NA
ATOM      3  C   LIG    1        3.128   1.000   1.538  0.00  0.00    +0.153 A 
ATOM      4  C   LIG    1        3.967  -0.131   1.519  0.00  0.00    +0.106 A 
ATOM      5  C   LIG    1        5.345  -0.422   1.327  0.00  0.00    +0.033 A 
ATOM      6  C   LIG    1        5.483  -1.799   1.442  0.00  0.00    +0.022 A 
ATOM      7  C   LIG    1        4.241  -2.367   1.698  0.00  0.00    +0.113 A 
ATOM      8  N   LIG    1        3.309  -1.359   1.747  0.00  0.00    -0.233 N 
ATOM      9  N   LIG    1        1.996  -1.525   1.973  0.00  0.00    -0.130 NA
ENDROOT
BRANCH   1  12
ATOM     10  C   LIG    1       -0.414  -2.394   3.774  0.00  0.00    +0.042 C 
ATOM     11  C   LIG    1       -0.934  -1.657   2.506  0.00  0.00    +0.111 C 
ATOM     12  N   LIG    1       -0.113  -0.458   2.177  0.00  0.00    -0.284 N 
ATOM     13  C   LIG    1       -1.032   0.684   2.068  0.00  0.00    +0.109 C 
ATOM     14  C   LIG    1       -2.452   0.145   1.966  0.00  0.00    +0.022 C 
ATOM     15  C   LIG    1       -2.364  -1.127   2.780  0.00  0.00    +0.037 C 
BRANCH  11  16
ATOM     16  C   LIG    1       -1.014  -2.669   1.308  0.00  0.00    +0.241 C 
ATOM     17  N   LIG    1       -0.730  -2.204   0.068  0.00  0.00    -0.282 N 
ATOM     18  H   LIG    1       -0.398  -1.252   0.010  0.00  0.00    +0.155 HD
ATOM     19  O   LIG    1       -1.330  -3.841   1.530  0.00  0.00    -0.273 OA
BRANCH  17  20
ATOM     20  C   LIG    1       -0.728  -2.909  -1.146  0.00  0.00    +0.052 A 
ATOM     21  C   LIG    1       -1.568  -3.998  -1.431  0.00  0.00    +0.029 A 
ATOM     22  C   LIG    1       -1.496  -4.612  -2.682  0.00  0.00    +0.061 A 
ATOM     23  C   LIG    1       -0.592  -4.119  -3.626  0.00  0.00    +0.213 A 
ATOM     24  F   LIG    1       -0.522  -4.714  -4.838  0.00  0.00    -0.184 F 
ATOM     25  N   LIG    1        0.217  -3.058  -3.372  0.00  0.00    -0.226 NA
ATOM     26  C   LIG    1        0.138  -2.469  -2.151  0.00  0.00    +0.137 A 
ENDBRANCH  17  20
ENDBRANCH  11  16
ENDBRANCH   1  12
BRANCH   3  27
ATOM     27  N   LIG    1        3.700   2.267   1.321  0.00  0.00    -0.281 N 
ATOM     28  H   LIG    1        4.702   2.206   1.214  0.00  0.00    +0.155 HD
BRANCH  27  29
ATOM     29  C   LIG    1        3.113   3.513   1.239  0.00  0.00    +0.146 A 
ATOM     30  C   LIG    1        3.796   4.734   1.144  0.00  0.00    +0.068 A 
ATOM     31  C   LIG    1        2.843   5.738   1.079  0.00  0.00    +0.041 A 
ATOM     32  N   LIG    1        1.663   5.049   1.135  0.00  0.00    -0.280 N 
ATOM     33  H   LIG    1        0.750   5.480   1.108  0.00  0.00    +0.189 HD
ATOM     34  N   LIG    1        1.812   3.724   1.228  0.00  0.00    -0.158 NA
BRANCH  31  35
ATOM     35  C   LIG    1        2.912   7.247   0.973  0.00  0.00    +0.037 C 
ATOM     36  C   LIG    1        3.987   8.012   1.704  0.00  0.00    +0.010 C 
ATOM     37  C   LIG    1        4.022   7.905   0.192  0.00  0.00    +0.010 C 
ENDBRANCH  31  35
ENDBRANCH  27  29
ENDBRANCH   3  27
TORSDOF 6
