REMARK  Name = DB15065
REMARK                            x       y       z     vdW  Elec       q    Type
REMARK                         _______ _______ _______ _____ _____    ______ ____
ROOT
ATOM      1  C   LIG    1       -0.090  -0.003   0.034  0.00  0.00    +0.204 C 
ENDROOT
BRANCH   1   2
ATOM      2  C   LIG    1       -0.606   1.438   0.114  0.00  0.00    -0.007 A 
ATOM      3  C   LIG    1        0.090   2.398   0.852  0.00  0.00    +0.008 A 
ATOM      4  C   LIG    1       -0.387   3.704   0.928  0.00  0.00    +0.013 A 
ATOM      5  C   LIG    1       -1.570   4.073   0.266  0.00  0.00    +0.037 A 
ATOM      6  C   LIG    1       -2.261   3.098  -0.469  0.00  0.00    +0.013 A 
ATOM      7  C   LIG    1       -1.785   1.793  -0.544  0.00  0.00    +0.008 A 
BRANCH   5   8
ATOM      8  C   LIG    1       -2.115   5.487   0.335  0.00  0.00    +0.244 C 
ATOM      9  N   LIG    1       -1.359   6.399   0.980  0.00  0.00    -0.311 N 
ATOM     10  H   LIG    1       -0.477   6.101   1.370  0.00  0.00    +0.149 HD
ATOM     11  O   LIG    1       -3.197   5.772  -0.185  0.00  0.00    -0.270 OA
BRANCH   9  12
ATOM     12  C   LIG    1       -1.701   7.809   1.167  0.00  0.00    +0.115 C 
BRANCH  12  13
ATOM     13  C   LIG    1       -2.785   8.029   2.256  0.00  0.00    +0.139 C 
BRANCH  13  14
ATOM     14  C   LIG    1       -3.147   9.511   2.523  0.00  0.00    +0.306 C 
ATOM     15  O   LIG    1       -4.055   9.712   3.360  0.00  0.00    -0.251 OA
BRANCH  14  16
ATOM     16  O   LIG    1       -2.539  10.427   1.921  0.00  0.00    -0.481 OA
ATOM     17  H   LIG    1       -2.760  11.323   2.084  0.00  0.00    +0.295 HD
ENDBRANCH  14  16
ENDBRANCH  13  14
ENDBRANCH  12  13
ENDBRANCH   9  12
ENDBRANCH   5   8
ENDBRANCH   1   2
BRANCH   1  18
ATOM     18  C   LIG    1       -0.401  -0.783   1.329  0.00  0.00    +0.049 C 
BRANCH  18  20
ATOM     19  C   LIG    1       -0.319  -3.028   2.562  0.00  0.00    +0.004 C 
ATOM     20  C   LIG    1        0.009  -2.267   1.271  0.00  0.00    +0.001 C 
ENDBRANCH  18  20
ENDBRANCH   1  18
BRANCH   1  21
ATOM     21  O   LIG    1        1.327  -0.035  -0.175  0.00  0.00    -0.484 OA
BRANCH  21  22
ATOM     22  C   LIG    1        1.884   0.391  -1.368  0.00  0.00    +0.122 A 
ATOM     23  C   LIG    1        1.154   0.759  -2.506  0.00  0.00    +0.051 A 
ATOM     24  C   LIG    1        1.797   1.184  -3.672  0.00  0.00    -0.021 A 
ATOM     25  C   LIG    1        0.938   1.538  -4.882  0.00  0.00    +0.046 C 
ATOM     26  C   LIG    1        3.206   1.239  -3.708  0.00  0.00    +0.071 A 
ATOM     27  C   LIG    1        3.948   0.860  -2.571  0.00  0.00    -0.021 A 
ATOM     28  C   LIG    1        5.471   0.930  -2.531  0.00  0.00    +0.046 C 
ATOM     29  C   LIG    1        3.275   0.443  -1.420  0.00  0.00    +0.051 A 
BRANCH  26  30
ATOM     30  N   LIG    1        3.874   1.665  -4.879  0.00  0.00    -0.239 N 
ATOM     31  N   LIG    1        3.716   2.913  -5.341  0.00  0.00    -0.174 NA
ATOM     32  C   LIG    1        4.481   2.975  -6.407  0.00  0.00    +0.147 A 
ATOM     33  C   LIG    1        5.174   1.785  -6.680  0.00  0.00    +0.093 A 
ATOM     34  C   LIG    1        4.751   0.950  -5.655  0.00  0.00    +0.127 A 
BRANCH  33  35
ATOM     35  C   LIG    1        6.138   1.495  -7.810  0.00  0.00    +0.420 C 
ATOM     36  F   LIG    1        6.638   0.262  -7.726  0.00  0.00    -0.166 F 
ATOM     37  F   LIG    1        7.162   2.348  -7.793  0.00  0.00    -0.166 F 
ATOM     38  F   LIG    1        5.534   1.607  -8.992  0.00  0.00    -0.166 F 
ENDBRANCH  33  35
ENDBRANCH  26  30
ENDBRANCH  21  22
ENDBRANCH   1  21
TORSDOF 12
