REMARK  Name = DB15149
REMARK                            x       y       z     vdW  Elec       q    Type
REMARK                         _______ _______ _______ _____ _____    ______ ____
ROOT
ATOM      1  C   LIG    1        4.181   0.039  -0.047  0.00  0.00    +0.148 A 
ATOM      2  C   LIG    1        5.028  -0.214  -1.174  0.00  0.00    +0.094 A 
ATOM      3  C   LIG    1        4.920  -0.522  -2.545  0.00  0.00    +0.131 A 
ATOM      4  N   LIG    1        6.029  -0.694  -3.309  0.00  0.00    -0.220 NA
ATOM      5  C   LIG    1        7.232  -0.555  -2.692  0.00  0.00    +0.225 A 
ATOM      6  N   LIG    1        7.468  -0.261  -1.385  0.00  0.00    -0.216 NA
ATOM      7  C   LIG    1        6.346  -0.099  -0.671  0.00  0.00    +0.165 A 
ATOM      8  N   LIG    1        6.213   0.206   0.672  0.00  0.00    -0.240 N 
ATOM      9  N   LIG    1        4.907   0.275   1.021  0.00  0.00    -0.160 NA
ENDROOT
BRANCH   8  10
ATOM     10  C   LIG    1        7.263   0.412   1.676  0.00  0.00    +0.128 C 
ATOM     11  C   LIG    1        7.247  -0.651   2.782  0.00  0.00    +0.135 C 
ATOM     12  N   LIG    1        7.784   0.052   3.958  0.00  0.00    -0.296 N 
ATOM     13  C   LIG    1        8.102  -0.510   5.155  0.00  0.00    +0.239 C 
ATOM     14  O   LIG    1        8.566   0.163   6.081  0.00  0.00    -0.271 OA
ATOM     15  C   LIG    1        7.954   1.491   3.712  0.00  0.00    +0.110 C 
ATOM     16  C   LIG    1        7.153   1.731   2.434  0.00  0.00    +0.047 C 
BRANCH  13  17
ATOM     17  C   LIG    1        7.868  -1.937   5.305  0.00  0.00    +0.060 C 
ATOM     18  C   LIG    1        8.228  -2.622   6.407  0.00  0.00    +0.013 C 
ENDBRANCH  13  17
ENDBRANCH   8  10
BRANCH   3  19
ATOM     19  N   LIG    1        3.682  -0.665  -3.167  0.00  0.00    -0.342 N 
ATOM     20  H   LIG    1        3.647  -0.887  -4.152  0.00  0.00    +0.144 HD
ATOM     21  H   LIG    1        2.837  -0.545  -2.627  0.00  0.00    +0.144 HD
ENDBRANCH   3  19
BRANCH   1  23
ATOM     22  C   LIG    1        1.507   0.046   0.007  0.00  0.00    -0.059 C 
ATOM     23  C   LIG    1        2.728   0.047  -0.005  0.00  0.00    -0.039 C 
BRANCH  22  28
ATOM     24  C   LIG    1       -2.056   1.240  -0.001  0.00  0.00    +0.125 A 
ATOM     25  C   LIG    1       -2.738   0.011  -0.004  0.00  0.00    +0.091 A 
ATOM     26  C   LIG    1       -2.035  -1.206  -0.002  0.00  0.00    +0.125 A 
ATOM     27  C   LIG    1       -0.640  -1.179   0.002  0.00  0.00    +0.062 A 
ATOM     28  C   LIG    1        0.051   0.034   0.005  0.00  0.00    +0.032 A 
ATOM     29  C   LIG    1       -0.660   1.236   0.004  0.00  0.00    +0.062 A 
BRANCH  24  31
ATOM     30  C   LIG    1       -4.092   2.548  -0.001  0.00  0.00    +0.277 C 
ATOM     31  O   LIG    1       -2.671   2.477  -0.002  0.00  0.00    -0.495 OA
ENDBRANCH  24  31
BRANCH  26  32
ATOM     32  O   LIG    1       -2.629  -2.454  -0.005  0.00  0.00    -0.495 OA
ATOM     33  C   LIG    1       -4.050  -2.548  -0.003  0.00  0.00    +0.277 C 
ENDBRANCH  26  32
ENDBRANCH  22  28
ENDBRANCH   1  23
TORSDOF 7
