REMARK  Name = DB15092
REMARK                            x       y       z     vdW  Elec       q    Type
REMARK                         _______ _______ _______ _____ _____    ______ ____
ROOT
ATOM      1  N   LIG    1        1.773   0.725  -1.122  0.00  0.00    +0.385 N 
ATOM      2  H   LIG    1        1.492   0.256  -1.972  0.00  0.00    -0.081 HD
ATOM      3  C   LIG    1        1.320   2.198  -1.250  0.00  0.00    -0.034 C 
ATOM      4  C   LIG    1        2.117   2.924  -2.361  0.00  0.00    +0.207 C 
ATOM      5  N   LIG    1        3.568   2.828  -2.117  0.00  0.00    -0.224 N 
ATOM      6  C   LIG    1        3.971   1.411  -2.197  0.00  0.00    +0.207 C 
ATOM      7  C   LIG    1        3.314   0.608  -1.053  0.00  0.00    -0.034 C 
ENDROOT
BRANCH   5   8
ATOM      8  C   LIG    1        4.248   3.735  -1.277  0.00  0.00    +0.325 C 
ATOM      9  C   LIG    1        5.731   3.615  -1.287  0.00  0.00    +0.108 A 
ATOM     10  C   LIG    1        6.439   3.460  -2.491  0.00  0.00    +0.019 A 
ATOM     11  C   LIG    1        7.828   3.346  -2.500  0.00  0.00    +0.001 A 
ATOM     12  C   LIG    1        8.537   3.397  -1.304  0.00  0.00    +0.004 A 
ATOM     13  C   LIG    1        7.856   3.573  -0.102  0.00  0.00    +0.047 A 
ATOM     14  C   LIG    1        6.464   3.692  -0.087  0.00  0.00    +0.143 A 
ATOM     15  O   LIG    1        5.822   3.898   1.109  0.00  0.00    -0.451 OA
ATOM     16  C   LIG    1        5.167   5.101   1.237  0.00  0.00    +0.179 A 
ATOM     17  C   LIG    1        5.581   5.972   2.248  0.00  0.00    +0.051 A 
ATOM     18  C   LIG    1        4.928   7.183   2.450  0.00  0.00    +0.004 A 
ATOM     19  C   LIG    1        3.843   7.520   1.649  0.00  0.00    +0.004 A 
ATOM     20  C   LIG    1        3.428   6.651   0.643  0.00  0.00    +0.059 A 
ATOM     21  C   LIG    1        4.090   5.444   0.380  0.00  0.00    +0.218 A 
ATOM     22  N   LIG    1        3.559   4.583  -0.602  0.00  0.00    -0.038 NA
ENDBRANCH   5   8
BRANCH   1  23
ATOM     23  C   LIG    1        1.143  -0.028   0.087  0.00  0.00    -0.061 C 
BRANCH  23  25
ATOM     24  C   LIG    1       -0.648  -1.052  -1.441  0.00  0.00    +0.020 C 
ATOM     25  C   LIG    1       -0.383  -0.381  -0.057  0.00  0.00    +0.047 C 
ATOM     26  C   LIG    1       -0.736  -1.421   1.043  0.00  0.00    +0.020 C 
BRANCH  25  27
ATOM     27  C   LIG    1       -1.307   0.870   0.189  0.00  0.00    +0.309 C 
ATOM     28  O   LIG    1       -1.048   1.613   1.166  0.00  0.00    -0.250 OA
BRANCH  27  29
ATOM     29  O   LIG    1       -2.285   1.077  -0.568  0.00  0.00    -0.480 OA
ATOM     30  H   LIG    1       -2.839   1.820  -0.426  0.00  0.00    +0.295 HD
ENDBRANCH  27  29
ENDBRANCH  25  27
ENDBRANCH  23  25
ENDBRANCH   1  23
TORSDOF 5
