REMARK  Name = DB15220
REMARK                            x       y       z     vdW  Elec       q    Type
REMARK                         _______ _______ _______ _____ _____    ______ ____
ROOT
ATOM      1  C   LIG    1       -1.578  -1.339  -0.338  0.00  0.00    +0.126 A 
ATOM      2  N   LIG    1       -0.254  -1.218  -0.049  0.00  0.00    -0.217 NA
ATOM      3  C   LIG    1        0.233   0.047   0.052  0.00  0.00    +0.133 A 
ATOM      4  N   LIG    1       -0.485   1.192  -0.097  0.00  0.00    -0.218 NA
ATOM      5  C   LIG    1       -1.807   1.040  -0.365  0.00  0.00    +0.121 A 
ATOM      6  C   LIG    1       -2.406  -0.218  -0.487  0.00  0.00    +0.087 A 
ENDROOT
BRANCH   1   9
ATOM      7  C   LIG    1       -2.732  -4.567  -0.996  0.00  0.00    -0.037 C 
ATOM      8  C   LIG    1       -3.329  -3.166  -0.958  0.00  0.00    +0.092 C 
ATOM      9  N   LIG    1       -2.098  -2.640  -0.371  0.00  0.00    -0.318 N 
ATOM     10  C   LIG    1       -1.435  -3.935  -0.512  0.00  0.00    +0.092 C 
BRANCH   7  12
ATOM     11  C   LIG    1       -4.739  -6.095  -0.495  0.00  0.00    -0.100 C 
ATOM     12  N   LIG    1       -3.356  -5.605  -0.047  0.00  0.00    +0.381 N 
ATOM     13  H   LIG    1       -2.734  -6.399   0.020  0.00  0.00    -0.086 HD
ATOM     14  H   LIG    1       -3.432  -5.198   0.875  0.00  0.00    -0.086 HD
ENDBRANCH   7  12
ENDBRANCH   1   9
BRANCH   5  15
ATOM     15  N   LIG    1       -2.570   2.195  -0.515  0.00  0.00    -0.343 N 
ATOM     16  H   LIG    1       -2.123   3.096  -0.425  0.00  0.00    +0.144 HD
ATOM     17  H   LIG    1       -3.557   2.120  -0.715  0.00  0.00    +0.144 HD
ENDBRANCH   5  15
BRANCH   3  18
ATOM     18  C   LIG    1        1.715   0.196   0.378  0.00  0.00    +0.079 C 
BRANCH  18  19
ATOM     19  C   LIG    1        2.147  -0.447   1.720  0.00  0.00    -0.010 C 
ATOM     20  C   LIG    1        3.670  -0.341   1.916  0.00  0.00    +0.007 C 
ATOM     21  C   LIG    1        1.395   0.144   2.929  0.00  0.00    +0.007 C 
ENDBRANCH  18  19
ENDBRANCH   3  18
TORSDOF 5
