REMARK  Name = DB15054
REMARK                            x       y       z     vdW  Elec       q    Type
REMARK                         _______ _______ _______ _____ _____    ______ ____
ROOT
ATOM      1  C   LIG    1        5.894   0.097  -0.142  0.00  0.00    +0.097 A 
ATOM      2  N   LIG    1        6.621  -0.444   0.828  0.00  0.00    -0.227 NA
ATOM      3  C   LIG    1        7.871  -0.237   0.503  0.00  0.00    +0.149 A 
ATOM      4  C   LIG    1        9.129  -0.613   1.200  0.00  0.00    +0.077 A 
ATOM      5  C   LIG    1        9.220  -1.511   2.267  0.00  0.00    +0.125 A 
ATOM      6  N   LIG    1       10.398  -1.829   2.865  0.00  0.00    -0.262 NA
ATOM      7  C   LIG    1       11.529  -1.239   2.398  0.00  0.00    +0.114 A 
ATOM      8  C   LIG    1       11.533  -0.326   1.341  0.00  0.00    +0.066 A 
ATOM      9  C   LIG    1       10.314  -0.014   0.737  0.00  0.00    +0.137 A 
ATOM     10  O   LIG    1       10.324   0.923  -0.285  0.00  0.00    -0.470 OA
ATOM     11  C   LIG    1        9.297   0.771  -1.245  0.00  0.00    +0.357 C 
ATOM     12  N   LIG    1        7.999   0.448  -0.677  0.00  0.00    -0.289 N 
ATOM     13  C   LIG    1        6.716   0.680  -1.123  0.00  0.00    +0.080 A 
ENDROOT
BRANCH   1  17
ATOM     14  C   LIG    1        1.594  -0.106  -0.012  0.00  0.00    -0.059 A 
ATOM     15  C   LIG    1        2.266  -0.136  -1.238  0.00  0.00    +0.003 A 
ATOM     16  C   LIG    1        3.656  -0.077  -1.278  0.00  0.00    +0.010 A 
ATOM     17  C   LIG    1        4.397   0.019  -0.096  0.00  0.00    +0.002 A 
ATOM     18  C   LIG    1        3.723   0.034   1.131  0.00  0.00    +0.010 A 
ATOM     19  C   LIG    1        2.333  -0.026   1.173  0.00  0.00    +0.003 A 
BRANCH  14  23
ATOM     20  C   LIG    1       -2.042  -3.003   0.249  0.00  0.00    +0.041 C 
ATOM     21  C   LIG    1       -0.751  -2.172   0.165  0.00  0.00    +0.061 C 
ATOM     22  C   LIG    1       -0.673  -0.985   1.141  0.00  0.00    +0.026 C 
ATOM     23  C   LIG    1        0.061  -0.174   0.032  0.00  0.00    -0.040 C 
ATOM     24  C   LIG    1       -0.724  -1.103  -0.941  0.00  0.00    +0.026 C 
BRANCH  23  25
ATOM     25  N   LIG    1       -0.462   1.273  -0.035  0.00  0.00    +0.385 N 
ATOM     26  H   LIG    1       -0.128   1.799   0.761  0.00  0.00    -0.089 HD
ATOM     27  H   LIG    1       -0.143   1.718  -0.883  0.00  0.00    -0.089 HD
ATOM     28  H   LIG    1       -1.471   1.277  -0.026  0.00  0.00    -0.089 HD
ENDBRANCH  23  25
BRANCH  21  29
ATOM     29  O   LIG    1        0.374  -3.036   0.191  0.00  0.00    -0.389 OA
ATOM     30  H   LIG    1        0.413  -3.514  -0.640  0.00  0.00    +0.210 HD
ENDBRANCH  21  29
ENDBRANCH  14  23
ENDBRANCH   1  17
BRANCH  13  31
ATOM     31  C   LIG    1        6.393   1.423  -2.376  0.00  0.00    +0.001 A 
ATOM     32  C   LIG    1        5.480   2.480  -2.333  0.00  0.00    +0.010 A 
ATOM     33  C   LIG    1        5.159   3.173  -3.497  0.00  0.00    +0.001 A 
ATOM     34  C   LIG    1        5.753   2.808  -4.703  0.00  0.00    +0.000 A 
ATOM     35  C   LIG    1        6.664   1.754  -4.755  0.00  0.00    +0.001 A 
ATOM     36  C   LIG    1        6.984   1.061  -3.591  0.00  0.00    +0.010 A 
ENDBRANCH  13  31
TORSDOF 5
