REMARK  Name = DB15641
REMARK                            x       y       z     vdW  Elec       q    Type
REMARK                         _______ _______ _______ _____ _____    ______ ____
ROOT
ATOM      1  C   LIG    1       -0.029   0.097  -0.058  0.00  0.00    -0.007 C 
ATOM      2  C   LIG    1       -0.767   1.248  -0.054  0.00  0.00    -0.032 C 
ENDROOT
BRANCH   1   3
ATOM      3  C   LIG    1       -0.640  -1.255   0.013  0.00  0.00    -0.014 A 
ATOM      4  C   LIG    1       -0.436  -2.179  -1.020  0.00  0.00    +0.009 A 
ATOM      5  C   LIG    1       -1.002  -3.452  -0.956  0.00  0.00    +0.004 A 
ATOM      6  C   LIG    1       -1.774  -3.817   0.147  0.00  0.00    +0.045 A 
ATOM      7  C   LIG    1       -1.976  -2.910   1.187  0.00  0.00    +0.117 A 
ATOM      8  C   LIG    1       -1.408  -1.637   1.121  0.00  0.00    +0.054 A 
BRANCH   7   9
ATOM      9  O   LIG    1       -2.729  -3.269   2.273  0.00  0.00    -0.507 OA
ATOM     10  H   LIG    1       -2.801  -2.570   2.926  0.00  0.00    +0.292 HD
ENDBRANCH   7   9
ENDBRANCH   1   3
BRANCH   1  11
ATOM     11  C   LIG    1        1.458   0.078  -0.145  0.00  0.00    -0.017 A 
ATOM     12  C   LIG    1        2.121   0.741  -1.184  0.00  0.00    +0.012 A 
ATOM     13  C   LIG    1        3.511   0.733  -1.254  0.00  0.00    +0.046 A 
ATOM     14  C   LIG    1        4.263   0.057  -0.282  0.00  0.00    +0.120 A 
ATOM     15  C   LIG    1        3.600  -0.615   0.745  0.00  0.00    +0.046 A 
ATOM     16  C   LIG    1        2.210  -0.608   0.814  0.00  0.00    +0.012 A 
BRANCH  14  17
ATOM     17  O   LIG    1        5.643   0.005  -0.261  0.00  0.00    -0.494 OA
BRANCH  17  18
ATOM     18  C   LIG    1        6.389   0.703  -1.257  0.00  0.00    +0.210 C 
BRANCH  18  19
ATOM     19  C   LIG    1        7.894   0.626  -0.937  0.00  0.00    -0.038 C 
BRANCH  19  20
ATOM     20  N   LIG    1        8.199   1.026   0.527  0.00  0.00    +0.378 N 
ATOM     21  H   LIG    1        7.629   0.434   1.115  0.00  0.00    -0.082 HD
ATOM     22  C   LIG    1        9.668   0.739   0.893  0.00  0.00    -0.096 C 
ATOM     23  C   LIG    1        7.827   2.487   0.854  0.00  0.00    -0.096 C 
ENDBRANCH  19  20
ENDBRANCH  18  19
ENDBRANCH  17  18
ENDBRANCH  14  17
ENDBRANCH   1  11
BRANCH   2  24
ATOM     24  C   LIG    1       -0.142   2.598  -0.020  0.00  0.00    -0.021 A 
ATOM     25  C   LIG    1       -0.423   3.535  -1.021  0.00  0.00    +0.008 A 
ATOM     26  C   LIG    1        0.164   4.797  -0.988  0.00  0.00    +0.001 A 
ATOM     27  C   LIG    1        1.034   5.126   0.049  0.00  0.00    +0.000 A 
ATOM     28  C   LIG    1        1.320   4.205   1.053  0.00  0.00    +0.001 A 
ATOM     29  C   LIG    1        0.730   2.945   1.020  0.00  0.00    +0.008 A 
ENDBRANCH   2  24
BRANCH   2  30
ATOM     30  C   LIG    1       -2.303   1.267  -0.054  0.00  0.00    +0.033 C 
ATOM     31  C   LIG    1       -2.924   1.793   1.250  0.00  0.00    +0.009 C 
ENDBRANCH   2  30
TORSDOF 9
