REMARK  Name = DB15308
REMARK                            x       y       z     vdW  Elec       q    Type
REMARK                         _______ _______ _______ _____ _____    ______ ____
ROOT
ATOM      1  N   LIG    1       -3.005  -2.141  -0.110  0.00  0.00    -0.228 NA
ATOM      2  C   LIG    1       -4.200  -1.599  -0.030  0.00  0.00    +0.139 A 
ATOM      3  N   LIG    1       -4.137  -0.231   0.134  0.00  0.00    -0.338 N 
ATOM      4  H   LIG    1       -4.953   0.358   0.215  0.00  0.00    +0.167 HD
ATOM      5  C   LIG    1       -2.810   0.129   0.168  0.00  0.00    +0.067 A 
ATOM      6  C   LIG    1       -2.142   1.345   0.314  0.00  0.00    +0.028 A 
ATOM      7  C   LIG    1       -0.746   1.293   0.300  0.00  0.00    +0.010 A 
ATOM      8  C   LIG    1       -0.028   0.097   0.147  0.00  0.00    -0.016 A 
ATOM      9  C   LIG    1       -0.724  -1.112  -0.001  0.00  0.00    +0.038 A 
ATOM     10  C   LIG    1       -2.126  -1.097   0.011  0.00  0.00    +0.090 A 
ENDROOT
BRANCH   8  11
ATOM     11  C   LIG    1        1.463   0.110   0.140  0.00  0.00    -0.016 A 
ATOM     12  C   LIG    1        2.176  -0.858   0.865  0.00  0.00    +0.011 A 
ATOM     13  C   LIG    1        3.570  -0.892   0.892  0.00  0.00    +0.030 A 
ATOM     14  C   LIG    1        4.267   0.079   0.164  0.00  0.00    +0.089 A 
ATOM     15  N   LIG    1        5.619   0.258   0.027  0.00  0.00    -0.228 NA
ATOM     16  C   LIG    1        5.751   1.304  -0.759  0.00  0.00    +0.139 A 
ATOM     17  N   LIG    1        4.531   1.820  -1.143  0.00  0.00    -0.338 N 
ATOM     18  H   LIG    1        4.433   2.623  -1.747  0.00  0.00    +0.167 HD
ATOM     19  C   LIG    1        3.547   1.053  -0.566  0.00  0.00    +0.067 A 
ATOM     20  C   LIG    1        2.151   1.091  -0.593  0.00  0.00    +0.036 A 
BRANCH  16  21
ATOM     21  C   LIG    1        7.067   1.875  -1.195  0.00  0.00    +0.020 A 
ATOM     22  C   LIG    1        7.125   3.016  -2.011  0.00  0.00    +0.031 A 
ATOM     23  C   LIG    1        8.370   3.514  -2.398  0.00  0.00    +0.111 A 
ATOM     24  N   LIG    1        9.542   2.946  -2.020  0.00  0.00    -0.263 NA
ATOM     25  C   LIG    1        9.482   1.844  -1.231  0.00  0.00    +0.111 A 
ATOM     26  C   LIG    1        8.277   1.284  -0.800  0.00  0.00    +0.031 A 
ENDBRANCH  16  21
ENDBRANCH   8  11
BRANCH   2  27
ATOM     27  C   LIG    1       -5.485  -2.367  -0.104  0.00  0.00    +0.020 A 
ATOM     28  C   LIG    1       -6.724  -1.713  -0.020  0.00  0.00    +0.031 A 
ATOM     29  C   LIG    1       -7.898  -2.467  -0.090  0.00  0.00    +0.111 A 
ATOM     30  N   LIG    1       -7.902  -3.815  -0.236  0.00  0.00    -0.263 NA
ATOM     31  C   LIG    1       -6.702  -4.443  -0.316  0.00  0.00    +0.111 A 
ATOM     32  C   LIG    1       -5.484  -3.763  -0.255  0.00  0.00    +0.031 A 
ENDBRANCH   2  27
TORSDOF 3
