REMARK  Name = DB15033
REMARK                            x       y       z     vdW  Elec       q    Type
REMARK                         _______ _______ _______ _____ _____    ______ ____
ROOT
ATOM      1  C   LIG    1        1.495   0.000   0.017  0.00  0.00    +0.016 C 
ATOM      2  C   LIG    1        2.196   1.022  -0.643  0.00  0.00    +0.029 C 
ATOM      3  C   LIG    1        3.595   0.983  -0.614  0.00  0.00    +0.050 C 
ATOM      4  N   LIG    1        4.534   1.837  -1.164  0.00  0.00    -0.300 NA
ATOM      5  H   LIG    1        4.317   2.665  -1.700  0.00  0.00    +0.123 HD
ATOM      6  C   LIG    1        5.810   1.397  -0.872  0.00  0.00    +0.052 C 
ATOM      7  C   LIG    1        7.071   1.918  -1.200  0.00  0.00    +0.036 C 
ATOM      8  C   LIG    1        8.181   1.209  -0.731  0.00  0.00    +0.076 C 
ATOM      9  N   LIG    1        8.034   0.085  -0.004  0.00  0.00    -0.307 NA
ATOM     10  H   LIG    1        8.868  -0.389   0.311  0.00  0.00    +0.123 HD
ATOM     11  C   LIG    1        6.842  -0.446   0.330  0.00  0.00    +0.081 C 
ATOM     12  C   LIG    1        5.676   0.209  -0.103  0.00  0.00    +0.026 C 
ATOM     13  C   LIG    1        4.303  -0.047   0.055  0.00  0.00    +0.012 C 
ATOM     14  C   LIG    1        3.586  -1.060   0.706  0.00  0.00    +0.007 C 
ATOM     15  C   LIG    1        2.195  -1.018   0.675  0.00  0.00    +0.009 C 
ENDROOT
BRANCH   1  20
ATOM     16  F   LIG    1       -4.121   0.117   0.052  0.00  0.00    -0.184 F 
ATOM     17  C   LIG    1       -2.770   0.080   0.041  0.00  0.00    +0.213 A 
ATOM     18  N   LIG    1       -2.082   1.238   0.208  0.00  0.00    -0.227 NA
ATOM     19  C   LIG    1       -0.726   1.187   0.195  0.00  0.00    +0.118 A 
ATOM     20  C   LIG    1        0.004   0.003   0.019  0.00  0.00    -0.021 A 
ATOM     21  C   LIG    1       -0.733  -1.178  -0.153  0.00  0.00    +0.010 A 
ATOM     22  C   LIG    1       -2.128  -1.145  -0.143  0.00  0.00    +0.059 A 
ENDBRANCH   1  20
TORSDOF 1
