REMARK  Name = DB15268
REMARK                            x       y       z     vdW  Elec       q    Type
REMARK                         _______ _______ _______ _____ _____    ______ ____
ROOT
ATOM      1  C   LIG    1        3.621   0.877  -0.159  0.00  0.00    -0.006 A 
ATOM      2  C   LIG    1        4.421  -0.273  -0.112  0.00  0.00    +0.016 A 
ATOM      3  C   LIG    1        5.811  -0.170  -0.003  0.00  0.00    -0.006 A 
ATOM      4  C   LIG    1        6.737  -1.366   0.075  0.00  0.00    +0.048 C 
ATOM      5  C   LIG    1        8.058  -1.064  -0.672  0.00  0.00    +0.101 C 
ATOM      6  C   LIG    1        8.709   0.279  -0.241  0.00  0.00    +0.223 C 
ATOM      7  O   LIG    1        9.935   0.410  -0.242  0.00  0.00    -0.275 OA
ATOM      8  N   LIG    1        7.802   1.256   0.083  0.00  0.00    -0.231 N 
ATOM      9  C   LIG    1        6.383   1.110   0.047  0.00  0.00    +0.132 A 
ATOM     10  N   LIG    1        5.620   2.238  -0.041  0.00  0.00    -0.239 NA
ATOM     11  C   LIG    1        4.274   2.111  -0.123  0.00  0.00    +0.120 A 
ENDROOT
BRANCH   1  13
ATOM     12  C   LIG    1        1.393  -0.272  -0.411  0.00  0.00    +0.068 C 
ATOM     13  C   LIG    1        2.146   0.832  -0.220  0.00  0.00    +0.014 C 
BRANCH  12  16
ATOM     14  C   LIG    1       -2.165  -1.429   0.060  0.00  0.00    +0.133 C 
ATOM     15  N   LIG    1       -0.698  -1.361   0.061  0.00  0.00    -0.294 N 
ATOM     16  C   LIG    1       -0.056  -0.239  -0.383  0.00  0.00    +0.240 C 
ATOM     17  O   LIG    1       -0.665   0.779  -0.727  0.00  0.00    -0.271 OA
BRANCH  15  18
ATOM     18  C   LIG    1       -0.074  -2.661   0.392  0.00  0.00    +0.182 C 
BRANCH  18  19
ATOM     19  C   LIG    1        0.941  -2.603   1.524  0.00  0.00    +0.126 A 
ATOM     20  O   LIG    1        0.563  -1.890   2.625  0.00  0.00    -0.458 OA
ATOM     21  C   LIG    1        1.621  -1.917   3.481  0.00  0.00    +0.136 A 
ATOM     22  C   LIG    1        1.684  -1.290   4.730  0.00  0.00    +0.047 A 
ATOM     23  C   LIG    1        2.869  -1.441   5.452  0.00  0.00    +0.004 A 
ATOM     24  C   LIG    1        3.936  -2.186   4.947  0.00  0.00    +0.001 A 
ATOM     25  C   LIG    1        3.861  -2.810   3.698  0.00  0.00    +0.012 A 
ATOM     26  C   LIG    1        2.684  -2.675   2.942  0.00  0.00    +0.023 A 
ATOM     27  C   LIG    1        2.224  -3.132   1.664  0.00  0.00    -0.000 A 
ATOM     28  C   LIG    1        2.997  -3.992   0.689  0.00  0.00    +0.048 C 
ENDBRANCH  18  19
ENDBRANCH  15  18
ENDBRANCH  12  16
ENDBRANCH   1  13
BRANCH   8  29
ATOM     29  C   LIG    1        8.338   2.583   0.479  0.00  0.00    +0.289 C 
BRANCH  29  30
ATOM     30  O   LIG    1        7.894   2.857   1.796  0.00  0.00    -0.267 OA
BRANCH  30  31
ATOM     31  P   LIG    1        7.971   4.485   2.453  0.00  0.00    +0.474 P 
ATOM     32  O   LIG    1        7.444   4.373   3.895  0.00  0.00    -0.227 OA
BRANCH  31  33
ATOM     33  O   LIG    1        7.069   5.346   1.550  0.00  0.00    -0.303 OA
ATOM     34  H   LIG    1        7.446   5.383   0.657  0.00  0.00    +0.222 HD
ENDBRANCH  31  33
BRANCH  31  35
ATOM     35  O   LIG    1        9.454   4.895   2.386  0.00  0.00    -0.303 OA
ATOM     36  H   LIG    1        9.732   4.950   1.458  0.00  0.00    +0.222 HD
ENDBRANCH  31  35
ENDBRANCH  30  31
ENDBRANCH  29  30
ENDBRANCH   8  29
TORSDOF 9
