REMARK  Name = DB15694
REMARK                            x       y       z     vdW  Elec       q    Type
REMARK                         _______ _______ _______ _____ _____    ______ ____
ROOT
ATOM      1  C   LIG    1        1.526  -0.120   0.062  0.00  0.00    +0.180 C 
ATOM      2  C   LIG    1        2.237  -1.467   0.239  0.00  0.00    +0.219 C 
ATOM      3  C   LIG    1        3.711  -1.081   0.225  0.00  0.00    +0.318 C 
ATOM      4  F   LIG    1        4.471  -2.022   0.788  0.00  0.00    -0.198 F 
ATOM      5  F   LIG    1        4.132  -0.864  -1.025  0.00  0.00    -0.198 F 
ATOM      6  C   LIG    1        3.667   0.252   0.979  0.00  0.00    +0.282 C 
ATOM      7  O   LIG    1        2.441   0.830   0.618  0.00  0.00    -0.344 OA
ENDROOT
BRANCH   6   8
ATOM      8  N   LIG    1        3.845   0.239   2.432  0.00  0.00    -0.255 N 
ATOM      9  C   LIG    1        5.136   0.079   2.896  0.00  0.00    +0.306 C 
ATOM     10  O   LIG    1        6.144   0.003   2.190  0.00  0.00    -0.253 OA
ATOM     11  N   LIG    1        5.298  -0.013   4.239  0.00  0.00    -0.274 N 
ATOM     12  H   LIG    1        6.248  -0.121   4.562  0.00  0.00    +0.153 HD
ATOM     13  C   LIG    1        4.238  -0.305   5.208  0.00  0.00    +0.205 C 
ATOM     14  C   LIG    1        3.011   0.499   4.773  0.00  0.00    +0.070 C 
ATOM     15  C   LIG    1        2.650   0.186   3.313  0.00  0.00    +0.116 C 
BRANCH  13  16
ATOM     16  O   LIG    1        3.978  -1.693   5.301  0.00  0.00    -0.374 OA
ATOM     17  H   LIG    1        3.343  -1.838   6.005  0.00  0.00    +0.212 HD
ENDBRANCH  13  16
ENDBRANCH   6   8
BRANCH   2  18
ATOM     18  O   LIG    1        1.887  -2.424  -0.744  0.00  0.00    -0.383 OA
ATOM     19  H   LIG    1        2.506  -3.157  -0.690  0.00  0.00    +0.210 HD
ENDBRANCH   2  18
BRANCH   1  20
ATOM     20  C   LIG    1        0.151  -0.033   0.753  0.00  0.00    +0.190 C 
BRANCH  20  21
ATOM     21  O   LIG    1       -0.443   1.230   0.534  0.00  0.00    -0.392 OA
ATOM     22  H   LIG    1       -1.308   1.239   0.950  0.00  0.00    +0.210 HD
ENDBRANCH  20  21
ENDBRANCH   1  20
TORSDOF 5
