REMARK  Name = DB15239
REMARK                            x       y       z     vdW  Elec       q    Type
REMARK                         _______ _______ _______ _____ _____    ______ ____
ROOT
ATOM      1  N   LIG    1        4.381  -0.170   0.310  0.00  0.00    -0.306 N 
ATOM      2  H   LIG    1        4.183   0.094  -0.644  0.00  0.00    +0.149 HD
ATOM      3  C   LIG    1        5.554   0.240   0.829  0.00  0.00    +0.282 C 
ATOM      4  O   LIG    1        5.814   0.264   2.034  0.00  0.00    -0.267 OA
ENDROOT
BRANCH   3   5
ATOM      5  C   LIG    1        6.523   0.637  -0.155  0.00  0.00    +0.222 A 
ATOM      6  O   LIG    1        7.593   1.372   0.242  0.00  0.00    -0.349 OA
ATOM      7  N   LIG    1        8.435   1.563  -0.855  0.00  0.00    -0.077 NA
ATOM      8  C   LIG    1        7.903   0.908  -1.870  0.00  0.00    +0.114 A 
ATOM      9  C   LIG    1        6.709   0.289  -1.480  0.00  0.00    +0.086 A 
BRANCH   8  10
ATOM     10  C   LIG    1        8.564   0.870  -3.219  0.00  0.00    +0.004 A 
ATOM     11  C   LIG    1        9.716   1.627  -3.482  0.00  0.00    +0.010 A 
ATOM     12  C   LIG    1       10.321   1.582  -4.736  0.00  0.00    +0.001 A 
ATOM     13  C   LIG    1        9.779   0.780  -5.735  0.00  0.00    +0.000 A 
ATOM     14  C   LIG    1        8.637   0.023  -5.492  0.00  0.00    +0.001 A 
ATOM     15  C   LIG    1        8.032   0.068  -4.238  0.00  0.00    +0.010 A 
ENDBRANCH   8  10
ENDBRANCH   3   5
BRANCH   1  18
ATOM     16  C   LIG    1        1.452  -0.017   0.128  0.00  0.00    +0.080 C 
ATOM     17  C   LIG    1        2.153  -1.389   0.282  0.00  0.00    +0.035 C 
ATOM     18  C   LIG    1        3.228  -0.650   1.088  0.00  0.00    +0.075 C 
ATOM     19  C   LIG    1        2.170   0.409   1.428  0.00  0.00    +0.035 C 
BRANCH  16  22
ATOM     20  C   LIG    1       -1.998   0.871   0.108  0.00  0.00    +0.245 A 
ATOM     21  O   LIG    1       -0.688   1.210   0.004  0.00  0.00    -0.422 OA
ATOM     22  C   LIG    1       -0.064   0.014   0.146  0.00  0.00    +0.221 A 
ATOM     23  N   LIG    1       -0.902  -0.979   0.321  0.00  0.00    -0.112 NA
ATOM     24  N   LIG    1       -2.175  -0.418   0.283  0.00  0.00    -0.110 NA
BRANCH  20  26
ATOM     25  C   LIG    1       -3.796   1.876  -1.364  0.00  0.00    +0.048 C 
ATOM     26  C   LIG    1       -3.043   1.964  -0.027  0.00  0.00    +0.199 C 
BRANCH  26  27
ATOM     27  O   LIG    1       -3.981   1.857   1.026  0.00  0.00    -0.383 OA
ATOM     28  H   LIG    1       -3.516   1.953   1.860  0.00  0.00    +0.210 HD
ENDBRANCH  26  27
ENDBRANCH  20  26
ENDBRANCH  16  22
ENDBRANCH   1  18
TORSDOF 6
