REMARK  Name = DB15282
REMARK                            x       y       z     vdW  Elec       q    Type
REMARK                         _______ _______ _______ _____ _____    ______ ____
ROOT
ATOM      1  C   LIG    1        0.606  -2.406   1.127  0.00  0.00    +0.015 C 
ATOM      2  C   LIG    1       -0.275  -1.110   1.074  0.00  0.00    +0.010 C 
ATOM      3  C   LIG    1        0.239  -0.097  -0.011  0.00  0.00    +0.164 C 
ATOM      4  O   LIG    1       -0.405   1.169   0.062  0.00  0.00    -0.327 OA
ATOM      5  C   LIG    1       -0.563   1.651  -1.229  0.00  0.00    +0.320 C 
ATOM      6  O   LIG    1       -0.869   0.535  -1.988  0.00  0.00    -0.338 OA
ATOM      7  C   LIG    1       -0.347  -0.623  -1.354  0.00  0.00    +0.162 C 
ATOM      8  C   LIG    1       -1.484  -1.606  -0.991  0.00  0.00    +0.039 C 
ATOM      9  C   LIG    1       -1.696  -1.378   0.512  0.00  0.00    +0.004 C 
ATOM     10  C   LIG    1       -2.502  -2.404   1.357  0.00  0.00    -0.003 C 
ATOM     11  C   LIG    1       -3.899  -2.673   0.770  0.00  0.00    +0.008 C 
ATOM     12  C   LIG    1       -4.626  -3.752   1.584  0.00  0.00    +0.031 C 
ATOM     13  C   LIG    1       -4.771  -3.300   3.038  0.00  0.00    -0.063 C 
ATOM     14  C   LIG    1       -3.462  -2.831   3.726  0.00  0.00    +0.019 C 
ATOM     15  C   LIG    1       -3.763  -2.203   5.120  0.00  0.00    +0.016 C 
ATOM     16  C   LIG    1       -4.893  -2.883   5.915  0.00  0.00    +0.079 C 
ATOM     17  C   LIG    1       -6.167  -3.000   5.073  0.00  0.00    +0.156 C 
ATOM     18  O   LIG    1       -7.289  -2.924   5.568  0.00  0.00    -0.293 OA
ATOM     19  C   LIG    1       -5.964  -3.348   3.675  0.00  0.00    +0.045 C 
ATOM     20  C   LIG    1       -2.657  -1.851   2.808  0.00  0.00    -0.000 C 
ATOM     21  C   LIG    1       -1.266  -1.486   3.411  0.00  0.00    +0.005 C 
ATOM     22  C   LIG    1       -0.455  -0.527   2.503  0.00  0.00    +0.010 C 
ENDROOT
BRANCH   5  23
ATOM     23  C   LIG    1       -1.637   2.669  -1.299  0.00  0.00    +0.161 A 
ATOM     24  O   LIG    1       -2.884   2.278  -0.925  0.00  0.00    -0.463 OA
ATOM     25  C   LIG    1       -3.692   3.360  -1.066  0.00  0.00    +0.195 A 
ATOM     26  C   LIG    1       -2.963   4.446  -1.527  0.00  0.00    +0.041 A 
ATOM     27  C   LIG    1       -1.647   4.004  -1.676  0.00  0.00    +0.050 A 
ENDBRANCH   5  23
BRANCH   3  28
ATOM     28  C   LIG    1        1.785   0.098  -0.006  0.00  0.00    +0.198 C 
ATOM     29  O   LIG    1        2.525  -0.575  -0.727  0.00  0.00    -0.291 OA
BRANCH  28  30
ATOM     30  C   LIG    1        2.349   1.185   0.916  0.00  0.00    +0.290 C 
ATOM     31  F   LIG    1        3.679   1.237   0.817  0.00  0.00    -0.241 F 
ENDBRANCH  28  30
ENDBRANCH   3  28
TORSDOF 3
