REMARK  Name = DB15028
REMARK                            x       y       z     vdW  Elec       q    Type
REMARK                         _______ _______ _______ _____ _____    ______ ____
ROOT
ATOM      1  C   LIG    1        2.838   0.323   3.321  0.00  0.00    +0.065 A 
ATOM      2  C   LIG    1        1.942  -0.021   4.362  0.00  0.00    +0.101 A 
ATOM      3  N   LIG    1        2.378  -0.254   5.630  0.00  0.00    -0.252 NA
ATOM      4  C   LIG    1        3.698  -0.127   5.904  0.00  0.00    +0.120 A 
ATOM      5  C   LIG    1        4.653   0.239   4.951  0.00  0.00    +0.002 A 
ATOM      6  C   LIG    1        4.195   0.463   3.647  0.00  0.00    +0.025 A 
ENDROOT
BRANCH   5   7
ATOM      7  C   LIG    1        6.093   0.376   5.306  0.00  0.00    +0.003 A 
ATOM      8  C   LIG    1        6.497   0.931   6.529  0.00  0.00    +0.031 A 
ATOM      9  C   LIG    1        7.855   1.049   6.834  0.00  0.00    +0.060 A 
ATOM     10 CL   LIG    1        8.367   1.732   8.334  0.00  0.00    -0.082 Cl
ATOM     11  C   LIG    1        8.788   0.603   5.898  0.00  0.00    +0.130 A 
ATOM     12  N   LIG    1        8.431   0.061   4.707  0.00  0.00    -0.261 NA
ATOM     13  C   LIG    1        7.106  -0.043   4.430  0.00  0.00    +0.119 A 
ENDBRANCH   5   7
BRANCH   2  14
ATOM     14  C   LIG    1        0.459  -0.098   4.210  0.00  0.00    +0.090 A 
ATOM     15  C   LIG    1       -0.292   0.993   3.753  0.00  0.00    +0.030 A 
ATOM     16  C   LIG    1       -1.676   0.858   3.631  0.00  0.00    +0.004 A 
ATOM     17  C   LIG    1       -2.280  -0.356   3.958  0.00  0.00    +0.020 A 
ATOM     18  C   LIG    1       -1.471  -1.400   4.409  0.00  0.00    +0.111 A 
ATOM     19  N   LIG    1       -0.125  -1.285   4.540  0.00  0.00    -0.253 NA
ENDBRANCH   2  14
BRANCH   1  22
ATOM     20  N   LIG    1        1.606  -0.429   1.385  0.00  0.00    -0.306 N 
ATOM     21  H   LIG    1        1.331  -1.186   1.994  0.00  0.00    +0.149 HD
ATOM     22  C   LIG    1        2.414   0.524   1.887  0.00  0.00    +0.247 C 
ATOM     23  O   LIG    1        2.830   1.485   1.238  0.00  0.00    -0.270 OA
BRANCH  20  24
ATOM     24  C   LIG    1        1.026  -0.444   0.043  0.00  0.00    +0.160 C 
BRANCH  24  28
ATOM     25  C   LIG    1       -3.144   0.550   0.124  0.00  0.00    +0.181 A 
ATOM     26  C   LIG    1       -2.125   1.499   0.290  0.00  0.00    +0.258 A 
ATOM     27  N   LIG    1       -0.801   1.168   0.253  0.00  0.00    -0.213 NA
ATOM     28  C   LIG    1       -0.463  -0.133   0.061  0.00  0.00    +0.062 A 
ATOM     29  C   LIG    1       -1.415  -1.136  -0.124  0.00  0.00    +0.029 A 
ATOM     30  C   LIG    1       -2.765  -0.788  -0.091  0.00  0.00    +0.053 A 
BRANCH  25  32
ATOM     31  C   LIG    1       -5.509   0.047   0.032  0.00  0.00    +0.277 C 
ATOM     32  O   LIG    1       -4.454   0.989   0.188  0.00  0.00    -0.490 OA
ENDBRANCH  25  32
BRANCH  26  33
ATOM     33  O   LIG    1       -2.477   2.819   0.518  0.00  0.00    -0.477 OA
ATOM     34  C   LIG    1       -1.460   3.793   0.744  0.00  0.00    +0.279 C 
ENDBRANCH  26  33
ENDBRANCH  24  28
ENDBRANCH  20  24
ENDBRANCH   1  22
TORSDOF 7
