REMARK  Name = DB15136
REMARK                            x       y       z     vdW  Elec       q    Type
REMARK                         _______ _______ _______ _____ _____    ______ ____
ROOT
ATOM      1  C   LIG    1        1.589  -0.030  -1.306  0.00  0.00    +0.283 C 
ATOM      2  C   LIG    1        1.878  -1.237  -0.404  0.00  0.00    +0.208 C 
ATOM      3  C   LIG    1        3.385  -1.567  -0.468  0.00  0.00    +0.186 C 
ATOM      4  C   LIG    1        3.842  -1.731  -1.940  0.00  0.00    +0.177 C 
ATOM      5  C   LIG    1        3.355  -0.533  -2.800  0.00  0.00    +0.178 C 
ATOM      6  O   LIG    1        1.944  -0.354  -2.622  0.00  0.00    -0.340 OA
ENDROOT
BRANCH   4   7
ATOM      7  O   LIG    1        5.248  -1.867  -2.033  0.00  0.00    -0.386 OA
ATOM      8  H   LIG    1        5.464  -2.233  -2.894  0.00  0.00    +0.210 HD
ENDBRANCH   4   7
BRANCH   1   9
ATOM      9  O   LIG    1        0.213   0.219  -1.249  0.00  0.00    -0.338 OA
BRANCH   9  15
ATOM     10  C   LIG    1       -2.491   1.647   2.565  0.00  0.00    +0.012 C 
ATOM     11  C   LIG    1       -2.482   3.171   2.221  0.00  0.00    -0.025 C 
ATOM     12  C   LIG    1       -1.881   3.452   0.763  0.00  0.00    +0.002 C 
ATOM     13  C   LIG    1       -2.561   2.634  -0.390  0.00  0.00    +0.008 C 
ATOM     14  C   LIG    1       -1.797   1.385  -0.903  0.00  0.00    +0.040 C 
ATOM     15  C   LIG    1       -0.256   1.512  -0.838  0.00  0.00    +0.094 C 
ATOM     16  C   LIG    1        0.187   1.896   0.575  0.00  0.00    +0.047 C 
ATOM     17  C   LIG    1        0.243   2.692  -1.672  0.00  0.00    -0.045 C 
ATOM     18  C   LIG    1        0.653   2.696  -2.952  0.00  0.00    +0.010 C 
ATOM     19  C   LIG    1        0.189   3.889  -0.720  0.00  0.00    +0.040 C 
ATOM     20  C   LIG    1       -0.303   3.342   0.657  0.00  0.00    -0.019 C 
ATOM     21  C   LIG    1        0.370   4.152   1.786  0.00  0.00    +0.008 C 
ATOM     22  C   LIG    1       -0.140   3.732   3.163  0.00  0.00    +0.006 C 
ATOM     23  C   LIG    1       -1.666   4.011   3.288  0.00  0.00    +0.012 C 
ATOM     24  C   LIG    1       -2.249   4.028   4.771  0.00  0.00    +0.068 C 
ATOM     25  C   LIG    1       -1.601   5.177   5.605  0.00  0.00    +0.023 C 
ATOM     26  C   LIG    1       -3.797   4.291   4.756  0.00  0.00    +0.018 C 
ATOM     27  C   LIG    1       -4.626   3.651   3.625  0.00  0.00    +0.002 C 
ATOM     28  C   LIG    1       -3.931   3.753   2.258  0.00  0.00    +0.007 C 
BRANCH  24  29
ATOM     29  C   LIG    1       -1.964   2.691   5.533  0.00  0.00    +0.316 C 
ATOM     30  O   LIG    1       -2.873   1.917   5.854  0.00  0.00    -0.250 OA
BRANCH  29  31
ATOM     31  O   LIG    1       -0.636   2.503   5.824  0.00  0.00    -0.432 OA
BRANCH  31  32
ATOM     32  C   LIG    1       -0.264   1.267   6.375  0.00  0.00    +0.342 C 
ATOM     33  C   LIG    1        1.269   1.142   6.267  0.00  0.00    +0.214 C 
ATOM     34  C   LIG    1        1.730  -0.186   6.920  0.00  0.00    +0.180 C 
ATOM     35  C   LIG    1        1.132  -0.364   8.333  0.00  0.00    +0.177 C 
ATOM     36  C   LIG    1       -0.393  -0.077   8.316  0.00  0.00    +0.179 C 
ATOM     37  O   LIG    1       -0.634   1.206   7.730  0.00  0.00    -0.331 OA
BRANCH  33  38
ATOM     38  O   LIG    1        1.716   1.225   4.924  0.00  0.00    -0.383 OA
ATOM     39  H   LIG    1        1.664   0.350   4.531  0.00  0.00    +0.210 HD
ENDBRANCH  33  38
BRANCH  34  40
ATOM     40  O   LIG    1        3.144  -0.303   6.928  0.00  0.00    -0.386 OA
ATOM     41  H   LIG    1        3.506   0.398   7.475  0.00  0.00    +0.210 HD
ENDBRANCH  34  40
BRANCH  35  42
ATOM     42  O   LIG    1        1.414  -1.651   8.857  0.00  0.00    -0.386 OA
ATOM     43  H   LIG    1        1.112  -2.312   8.229  0.00  0.00    +0.210 HD
ENDBRANCH  35  42
BRANCH  36  44
ATOM     44  C   LIG    1       -1.066  -0.113   9.707  0.00  0.00    +0.190 C 
BRANCH  44  45
ATOM     45  O   LIG    1       -0.504   0.834  10.594  0.00  0.00    -0.392 OA
ATOM     46  H   LIG    1       -0.727   1.713  10.278  0.00  0.00    +0.210 HD
ENDBRANCH  44  45
ENDBRANCH  36  44
ENDBRANCH  31  32
ENDBRANCH  29  31
ENDBRANCH  24  29
ENDBRANCH   9  15
ENDBRANCH   1   9
BRANCH   2  47
ATOM     47  O   LIG    1        1.485  -0.973   0.948  0.00  0.00    -0.338 OA
BRANCH  47  48
ATOM     48  C   LIG    1        0.498  -1.812   1.480  0.00  0.00    +0.282 C 
ATOM     49  C   LIG    1        0.358  -1.488   2.975  0.00  0.00    +0.201 C 
ATOM     50  C   LIG    1       -0.785  -2.331   3.592  0.00  0.00    +0.179 C 
ATOM     51  C   LIG    1       -2.077  -2.245   2.749  0.00  0.00    +0.177 C 
ATOM     52  C   LIG    1       -1.765  -2.479   1.250  0.00  0.00    +0.178 C 
ATOM     53  O   LIG    1       -0.734  -1.570   0.848  0.00  0.00    -0.341 OA
BRANCH  49  54
ATOM     54  O   LIG    1        1.571  -1.716   3.667  0.00  0.00    -0.384 OA
ATOM     55  H   LIG    1        2.266  -1.212   3.235  0.00  0.00    +0.210 HD
ENDBRANCH  49  54
BRANCH  50  56
ATOM     56  O   LIG    1       -1.020  -1.977   4.944  0.00  0.00    -0.386 OA
ATOM     57  H   LIG    1       -0.170  -1.821   5.363  0.00  0.00    +0.210 HD
ENDBRANCH  50  56
BRANCH  51  58
ATOM     58  O   LIG    1       -3.067  -3.144   3.223  0.00  0.00    -0.386 OA
ATOM     59  H   LIG    1       -2.692  -4.027   3.246  0.00  0.00    +0.210 HD
ENDBRANCH  51  58
BRANCH  52  60
ATOM     60  C   LIG    1       -2.996  -2.261   0.344  0.00  0.00    +0.190 C 
BRANCH  60  61
ATOM     61  O   LIG    1       -2.683  -2.539  -1.006  0.00  0.00    -0.392 OA
ATOM     62  H   LIG    1       -3.463  -2.376  -1.542  0.00  0.00    +0.210 HD
ENDBRANCH  60  61
ENDBRANCH  52  60
ENDBRANCH  47  48
ENDBRANCH   2  47
BRANCH   3  63
ATOM     63  O   LIG    1        3.588  -2.762   0.292  0.00  0.00    -0.340 OA
BRANCH  63  64
ATOM     64  C   LIG    1        4.813  -2.914   0.952  0.00  0.00    +0.282 C 
ATOM     65  C   LIG    1        4.619  -2.530   2.433  0.00  0.00    +0.201 C 
ATOM     66  C   LIG    1        5.870  -2.901   3.265  0.00  0.00    +0.179 C 
ATOM     67  C   LIG    1        6.365  -4.332   2.961  0.00  0.00    +0.177 C 
ATOM     68  C   LIG    1        6.466  -4.554   1.433  0.00  0.00    +0.178 C 
ATOM     69  O   LIG    1        5.193  -4.260   0.848  0.00  0.00    -0.341 OA
BRANCH  65  70
ATOM     70  O   LIG    1        4.320  -1.151   2.580  0.00  0.00    -0.384 OA
ATOM     71  H   LIG    1        5.135  -0.651   2.490  0.00  0.00    +0.210 HD
ENDBRANCH  65  70
BRANCH  66  72
ATOM     72  O   LIG    1        5.630  -2.728   4.653  0.00  0.00    -0.386 OA
ATOM     73  H   LIG    1        5.069  -1.957   4.772  0.00  0.00    +0.210 HD
ENDBRANCH  66  72
BRANCH  67  74
ATOM     74  O   LIG    1        7.598  -4.592   3.611  0.00  0.00    -0.386 OA
ATOM     75  H   LIG    1        7.460  -4.521   4.559  0.00  0.00    +0.210 HD
ENDBRANCH  67  74
BRANCH  68  76
ATOM     76  C   LIG    1        6.841  -6.005   1.061  0.00  0.00    +0.190 C 
BRANCH  76  77
ATOM     77  O   LIG    1        7.040  -6.134  -0.333  0.00  0.00    -0.392 OA
ATOM     78  H   LIG    1        7.255  -7.049  -0.527  0.00  0.00    +0.210 HD
ENDBRANCH  76  77
ENDBRANCH  68  76
ENDBRANCH  63  64
ENDBRANCH   3  63
BRANCH   5  79
ATOM     79  C   LIG    1        3.621  -0.726  -4.308  0.00  0.00    +0.190 C 
BRANCH  79  80
ATOM     80  O   LIG    1        3.293   0.445  -5.029  0.00  0.00    -0.392 OA
ATOM     81  H   LIG    1        3.443   0.282  -5.963  0.00  0.00    +0.210 HD
ENDBRANCH  79  80
ENDBRANCH   5  79
TORSDOF 27
