REMARK  Name = DB15230
REMARK                            x       y       z     vdW  Elec       q    Type
REMARK                         _______ _______ _______ _____ _____    ______ ____
ROOT
ATOM      1  C   LIG    1       -0.688   1.312   0.022  0.00  0.00    +0.062 A 
ATOM      2  C   LIG    1       -2.099   1.267   0.071  0.00  0.00    +0.156 A 
ATOM      3  N   LIG    1       -2.778   0.096   0.039  0.00  0.00    -0.240 NA
ATOM      4  C   LIG    1       -2.102  -1.074  -0.028  0.00  0.00    +0.119 A 
ATOM      5  C   LIG    1       -0.694  -1.130  -0.079  0.00  0.00    +0.059 A 
ATOM      6  C   LIG    1        0.032   0.091  -0.066  0.00  0.00    -0.021 A 
ENDROOT
BRANCH   2   7
ATOM      7  C   LIG    1       -2.998   2.516   0.166  0.00  0.00    +0.435 C 
ATOM      8  F   LIG    1       -4.295   2.219   0.289  0.00  0.00    -0.164 F 
ATOM      9  F   LIG    1       -2.860   3.254  -0.936  0.00  0.00    -0.164 F 
ATOM     10  F   LIG    1       -2.661   3.255   1.224  0.00  0.00    -0.164 F 
ENDBRANCH   2   7
BRANCH   4  11
ATOM     11  C   LIG    1       -3.025  -2.300  -0.028  0.00  0.00    +0.390 C 
ATOM     12  F   LIG    1       -3.768  -2.332   1.080  0.00  0.00    -0.202 F 
ATOM     13  F   LIG    1       -3.825  -2.288  -1.094  0.00  0.00    -0.202 F 
ENDBRANCH   4  11
BRANCH   1  14
ATOM     14  C   LIG    1        0.017   2.628   0.081  0.00  0.00    +0.222 C 
ATOM     15  O   LIG    1        0.087   3.393  -0.881  0.00  0.00    -0.280 OA
BRANCH  14  17
ATOM     16  C   LIG    1        1.330   4.691   1.394  0.00  0.00    +0.093 C 
ATOM     17  S   LIG    1        0.662   3.042   1.757  0.00  0.00    -0.086 S 
ENDBRANCH  14  17
ENDBRANCH   1  14
BRANCH   5  18
ATOM     18  C   LIG    1       -0.009  -2.455  -0.134  0.00  0.00    +0.222 C 
ATOM     19  O   LIG    1       -0.004  -3.166  -1.138  0.00  0.00    -0.280 OA
BRANCH  18  20
ATOM     20  S   LIG    1        0.683  -2.987   1.489  0.00  0.00    -0.086 S 
ATOM     21  C   LIG    1        1.294  -4.628   1.004  0.00  0.00    +0.093 C 
ENDBRANCH  18  20
ENDBRANCH   5  18
BRANCH   6  22
ATOM     22  C   LIG    1        1.577   0.101  -0.190  0.00  0.00    +0.039 C 
BRANCH  22  23
ATOM     23  C   LIG    1        2.105   0.434  -1.609  0.00  0.00    -0.013 C 
ATOM     24  C   LIG    1        3.637   0.586  -1.603  0.00  0.00    +0.007 C 
ATOM     25  C   LIG    1        1.665  -0.591  -2.673  0.00  0.00    +0.007 C 
ENDBRANCH  22  23
ENDBRANCH   6  22
TORSDOF 8
