REMARK  Name = DB15108
REMARK                            x       y       z     vdW  Elec       q    Type
REMARK                         _______ _______ _______ _____ _____    ______ ____
ROOT
ATOM      1  C   LIG    1        1.578  -0.111   0.081  0.00  0.00    +0.059 C 
ENDROOT
BRANCH   1   6
ATOM      2  C   LIG    1       -2.746  -0.089   0.770  0.00  0.00    +0.121 C 
ATOM      3  O   LIG    1       -2.056  -1.295   0.375  0.00  0.00    -0.454 OA
ATOM      4  C   LIG    1       -0.706  -1.338   0.100  0.00  0.00    +0.339 C 
ATOM      5  O   LIG    1       -0.261  -2.476  -0.030  0.00  0.00    -0.245 OA
ATOM      6  C   LIG    1        0.022  -0.042   0.013  0.00  0.00    +0.081 C 
ATOM      7  C   LIG    1       -0.709   1.102  -0.048  0.00  0.00    +0.108 C 
ATOM      8  C   LIG    1       -2.235   1.123  -0.071  0.00  0.00    +0.122 C 
BRANCH   7   9
ATOM      9  O   LIG    1       -0.217   2.295  -0.096  0.00  0.00    -0.510 OA
ATOM     10  H   LIG    1       -0.789   3.036  -0.136  0.00  0.00    +0.292 HD
ENDBRANCH   7   9
BRANCH   2  11
ATOM     11  C   LIG    1       -2.459   0.164   2.289  0.00  0.00    +0.048 C 
BRANCH  11  13
ATOM     12  C   LIG    1       -2.425  -0.706   4.701  0.00  0.00    +0.004 C 
ATOM     13  C   LIG    1       -2.777  -1.012   3.240  0.00  0.00    +0.000 C 
ENDBRANCH  11  13
ENDBRANCH   2  11
BRANCH   2  14
ATOM     14  C   LIG    1       -4.261  -0.345   0.483  0.00  0.00    +0.053 C 
BRANCH  14  15
ATOM     15  C   LIG    1       -4.736  -0.495  -0.987  0.00  0.00    +0.039 C 
BRANCH  15  16
ATOM     16  C   LIG    1       -4.079  -1.632  -1.760  0.00  0.00    -0.047 A 
ATOM     17  C   LIG    1       -4.377  -2.958  -1.433  0.00  0.00    +0.003 A 
ATOM     18  C   LIG    1       -3.756  -4.000  -2.118  0.00  0.00    +0.000 A 
ATOM     19  C   LIG    1       -2.841  -3.713  -3.129  0.00  0.00    +0.000 A 
ATOM     20  C   LIG    1       -2.545  -2.394  -3.464  0.00  0.00    +0.000 A 
ATOM     21  C   LIG    1       -3.167  -1.352  -2.782  0.00  0.00    +0.003 A 
ENDBRANCH  15  16
ENDBRANCH  14  15
ENDBRANCH   2  14
ENDBRANCH   1   6
BRANCH   1  22
ATOM     22  C   LIG    1        2.156  -0.170   1.507  0.00  0.00    -0.038 A 
ATOM     23  C   LIG    1        1.529  -0.873   2.547  0.00  0.00    +0.028 A 
ATOM     24  C   LIG    1        2.060  -0.877   3.838  0.00  0.00    +0.048 A 
ATOM     25  C   LIG    1        3.253  -0.192   4.094  0.00  0.00    +0.024 A 
ATOM     26  C   LIG    1        3.896   0.498   3.068  0.00  0.00    +0.002 A 
ATOM     27  C   LIG    1        3.349   0.511   1.786  0.00  0.00    +0.004 A 
BRANCH  24  28
ATOM     28  N   LIG    1        1.370  -1.571   4.839  0.00  0.00    -0.215 N 
ATOM     29  H   LIG    1        0.578  -2.117   4.534  0.00  0.00    +0.174 HD
BRANCH  28  30
ATOM     30  S   LIG    1        1.266  -0.956   6.501  0.00  0.00    +0.090 S 
ATOM     31  O   LIG    1        0.807   0.436   6.417  0.00  0.00    -0.148 OA
ATOM     32  O   LIG    1        2.531  -1.287   7.167  0.00  0.00    -0.148 OA
BRANCH  30  33
ATOM     33  C   LIG    1       -0.019  -1.913   7.290  0.00  0.00    +0.197 A 
ATOM     34  C   LIG    1       -1.009  -1.304   8.065  0.00  0.00    +0.050 A 
ATOM     35  C   LIG    1       -1.991  -2.114   8.639  0.00  0.00    +0.017 A 
ATOM     36  C   LIG    1       -1.963  -3.500   8.432  0.00  0.00    +0.073 A 
ATOM     37  C   LIG    1       -0.934  -4.021   7.636  0.00  0.00    +0.125 A 
ATOM     38  N   LIG    1        0.030  -3.252   7.067  0.00  0.00    -0.235 NA
BRANCH  36  39
ATOM     39  C   LIG    1       -3.037  -4.397   9.042  0.00  0.00    +0.419 C 
ATOM     40  F   LIG    1       -2.799  -4.540  10.345  0.00  0.00    -0.166 F 
ATOM     41  F   LIG    1       -3.056  -5.608   8.480  0.00  0.00    -0.166 F 
ATOM     42  F   LIG    1       -4.243  -3.851   8.885  0.00  0.00    -0.166 F 
ENDBRANCH  36  39
ENDBRANCH  30  33
ENDBRANCH  28  30
ENDBRANCH  24  28
ENDBRANCH   1  22
BRANCH   1  43
ATOM     43  C   LIG    1        2.288  -1.116  -0.868  0.00  0.00    +0.010 C 
ATOM     44  C   LIG    1        1.838  -1.036  -2.338  0.00  0.00    +0.005 C 
ENDBRANCH   1  43
TORSDOF 13
