REMARK  Name = DB15056
REMARK                            x       y       z     vdW  Elec       q    Type
REMARK                         _______ _______ _______ _____ _____    ______ ____
ROOT
ATOM      1  O   LIG    1       -0.655  -0.766  -0.877  0.00  0.00    -0.460 OA
ENDROOT
BRANCH   1   2
ATOM      2  C   LIG    1       -0.128  -0.183   0.227  0.00  0.00    +0.312 C 
ATOM      3  O   LIG    1       -0.772   0.183   1.212  0.00  0.00    -0.250 OA
BRANCH   2   4
ATOM      4  C   LIG    1        1.406  -0.052   0.113  0.00  0.00    +0.111 C 
ATOM      5  C   LIG    1        2.182   1.127   0.679  0.00  0.00    -0.014 C 
ATOM      6  C   LIG    1        1.460   2.297   1.393  0.00  0.00    +0.012 C 
ATOM      7  C   LIG    1        3.349   1.623  -0.193  0.00  0.00    +0.012 C 
ATOM      8  C   LIG    1        2.339  -0.218   1.345  0.00  0.00    +0.034 C 
BRANCH   8   9
ATOM      9  C   LIG    1        1.781  -0.464   2.742  0.00  0.00    +0.002 C 
ATOM     10  C   LIG    1        2.269   0.061   3.883  0.00  0.00    +0.117 C 
ATOM     11 CL   LIG    1        3.691   1.120   3.881  0.00  0.00    -0.079 Cl
BRANCH  10  12
ATOM     12  C   LIG    1        1.711  -0.167   5.283  0.00  0.00    +0.427 C 
ATOM     13  F   LIG    1        1.351   1.000   5.818  0.00  0.00    -0.165 F 
ATOM     14  F   LIG    1        2.642  -0.730   6.053  0.00  0.00    -0.165 F 
ATOM     15  F   LIG    1        0.644  -0.967   5.251  0.00  0.00    -0.165 F 
ENDBRANCH  10  12
ENDBRANCH   8   9
ENDBRANCH   2   4
ENDBRANCH   1   2
BRANCH   1  16
ATOM     16  C   LIG    1       -2.058  -1.017  -0.996  0.00  0.00    +0.268 C 
BRANCH  16  19
ATOM     17  C   LIG    1       -4.916  -1.738  -1.007  0.00  0.00    +0.045 C 
ATOM     18  C   LIG    1       -3.893  -2.699  -0.393  0.00  0.00    -0.036 A 
ATOM     19  C   LIG    1       -2.528  -2.336  -0.355  0.00  0.00    -0.007 A 
ATOM     20  C   LIG    1       -1.607  -3.201   0.253  0.00  0.00    +0.007 A 
ATOM     21  C   LIG    1       -2.024  -4.393   0.829  0.00  0.00    +0.001 A 
ATOM     22  C   LIG    1       -3.366  -4.749   0.788  0.00  0.00    +0.009 A 
ATOM     23  C   LIG    1       -4.315  -3.929   0.168  0.00  0.00    -0.015 A 
BRANCH  23  24
ATOM     24  C   LIG    1       -5.730  -4.406   0.128  0.00  0.00    -0.018 A 
ATOM     25  C   LIG    1       -6.422  -4.499  -1.087  0.00  0.00    +0.008 A 
ATOM     26  C   LIG    1       -7.736  -4.957  -1.121  0.00  0.00    +0.001 A 
ATOM     27  C   LIG    1       -8.366  -5.332   0.062  0.00  0.00    +0.000 A 
ATOM     28  C   LIG    1       -7.691  -5.255   1.277  0.00  0.00    +0.001 A 
ATOM     29  C   LIG    1       -6.377  -4.797   1.308  0.00  0.00    +0.008 A 
ENDBRANCH  23  24
ENDBRANCH  16  19
ENDBRANCH   1  16
TORSDOF 7
