REMARK  Name = DB15057
REMARK                            x       y       z     vdW  Elec       q    Type
REMARK                         _______ _______ _______ _____ _____    ______ ____
ROOT
ATOM      1  P   LIG    1        2.489  -0.934   0.793  0.00  0.00    +0.462 P 
ATOM      2  O   LIG    1        3.460  -0.058   1.505  0.00  0.00    -0.228 OA
ENDROOT
BRANCH   1   3
ATOM      3  N   LIG    1        0.853  -0.476   0.855  0.00  0.00    -0.199 NA
ATOM      4  H   LIG    1        0.133  -1.169   1.063  0.00  0.00    +0.135 HD
BRANCH   3   6
ATOM      5  C   LIG    1       -0.724   1.049  -0.320  0.00  0.00    +0.036 C 
ATOM      6  C   LIG    1        0.399   0.907   0.725  0.00  0.00    +0.171 C 
BRANCH   6   7
ATOM      7  C   LIG    1       -0.063   1.441   2.063  0.00  0.00    +0.325 C 
ATOM      8  O   LIG    1       -0.934   0.894   2.745  0.00  0.00    -0.249 OA
BRANCH   7   9
ATOM      9  O   LIG    1        0.596   2.579   2.398  0.00  0.00    -0.459 OA
BRANCH   9  10
ATOM     10  C   LIG    1        0.356   3.257   3.632  0.00  0.00    +0.267 C 
BRANCH  10  11
ATOM     11  C   LIG    1       -1.019   3.917   3.683  0.00  0.00    -0.010 A 
ATOM     12  C   LIG    1       -1.462   4.712   2.620  0.00  0.00    +0.007 A 
ATOM     13  C   LIG    1       -2.719   5.307   2.676  0.00  0.00    +0.000 A 
ATOM     14  C   LIG    1       -3.527   5.110   3.794  0.00  0.00    +0.000 A 
ATOM     15  C   LIG    1       -3.089   4.324   4.857  0.00  0.00    +0.000 A 
ATOM     16  C   LIG    1       -1.832   3.727   4.802  0.00  0.00    +0.007 A 
ENDBRANCH  10  11
ENDBRANCH   9  10
ENDBRANCH   7   9
ENDBRANCH   6   7
ENDBRANCH   3   6
ENDBRANCH   1   3
BRANCH   1  17
ATOM     17  O   LIG    1        2.782  -1.131  -0.802  0.00  0.00    -0.413 OA
BRANCH  17  18
ATOM     18  C   LIG    1        2.668  -0.147  -1.750  0.00  0.00    +0.131 A 
ATOM     19  C   LIG    1        3.295   1.094  -1.593  0.00  0.00    +0.046 A 
ATOM     20  C   LIG    1        3.158   2.070  -2.577  0.00  0.00    +0.004 A 
ATOM     21  C   LIG    1        2.406   1.798  -3.718  0.00  0.00    +0.000 A 
ATOM     22  C   LIG    1        1.794   0.558  -3.887  0.00  0.00    +0.004 A 
ATOM     23  C   LIG    1        1.930  -0.417  -2.903  0.00  0.00    +0.046 A 
ENDBRANCH  17  18
ENDBRANCH   1  17
BRANCH   1  24
ATOM     24  O   LIG    1        2.446  -2.466   1.344  0.00  0.00    -0.284 OA
BRANCH  24  25
ATOM     25  C   LIG    1        3.579  -3.310   1.231  0.00  0.00    +0.206 C 
BRANCH  25  26
ATOM     26  C   LIG    1        3.603  -4.360   2.360  0.00  0.00    +0.182 C 
ATOM     27  C   LIG    1        2.285  -5.098   2.620  0.00  0.00    +0.219 C 
ATOM     28  C   LIG    1        2.346  -5.381   4.116  0.00  0.00    +0.321 C 
ATOM     29  F   LIG    1        1.132  -5.670   4.586  0.00  0.00    -0.198 F 
ATOM     30  F   LIG    1        3.165  -6.407   4.367  0.00  0.00    -0.198 F 
ATOM     31  C   LIG    1        2.998  -4.083   4.626  0.00  0.00    +0.296 C 
ATOM     32  O   LIG    1        3.923  -3.757   3.616  0.00  0.00    -0.342 OA
BRANCH  31  33
ATOM     33  N   LIG    1        2.147  -2.942   5.005  0.00  0.00    -0.267 N 
ATOM     34  C   LIG    1        1.246  -3.079   6.056  0.00  0.00    +0.352 A 
ATOM     35  O   LIG    1        1.288  -4.089   6.760  0.00  0.00    -0.244 OA
ATOM     36  N   LIG    1        0.344  -2.007   6.251  0.00  0.00    -0.178 NA
ATOM     37  C   LIG    1        0.464  -0.878   5.641  0.00  0.00    +0.123 A 
ATOM     38  C   LIG    1        1.494  -0.670   4.668  0.00  0.00    +0.061 A 
ATOM     39  C   LIG    1        2.285  -1.716   4.390  0.00  0.00    +0.097 A 
BRANCH  37  40
ATOM     40  N   LIG    1       -0.380   0.135   5.882  0.00  0.00    -0.343 N 
ATOM     41  H   LIG    1       -1.122   0.028   6.558  0.00  0.00    +0.144 HD
ATOM     42  H   LIG    1       -0.298   1.004   5.374  0.00  0.00    +0.144 HD
ENDBRANCH  37  40
ENDBRANCH  31  33
BRANCH  27  43
ATOM     43  O   LIG    1        2.124  -6.257   1.822  0.00  0.00    -0.383 OA
ATOM     44  H   LIG    1        1.388  -6.766   2.170  0.00  0.00    +0.210 HD
ENDBRANCH  27  43
ENDBRANCH  25  26
ENDBRANCH  24  25
ENDBRANCH   1  24
TORSDOF 14
