REMARK  Name = DB15467
REMARK                            x       y       z     vdW  Elec       q    Type
REMARK                         _______ _______ _______ _____ _____    ______ ____
ROOT
ATOM      1  C   LIG    1       -1.829   1.415   0.000  0.00  0.00    +0.092 C 
ATOM      2  C   LIG    1       -2.642   2.494   0.000  0.00  0.00    +0.015 C 
ENDROOT
BRANCH   2   3
ATOM      3  C   LIG    1       -4.122   2.484   0.000  0.00  0.00    -0.025 A 
ATOM      4  C   LIG    1       -4.868   1.298   0.000  0.00  0.00    +0.011 A 
ATOM      5  C   LIG    1       -6.259   1.342   0.000  0.00  0.00    +0.046 A 
ATOM      6  C   LIG    1       -6.932   2.564   0.000  0.00  0.00    +0.120 A 
ATOM      7  C   LIG    1       -6.187   3.753   0.000  0.00  0.00    +0.046 A 
ATOM      8  C   LIG    1       -4.795   3.708   0.000  0.00  0.00    +0.011 A 
BRANCH   6   9
ATOM      9  O   LIG    1       -8.313   2.509   0.000  0.00  0.00    -0.495 OA
ATOM     10  C   LIG    1       -9.057   3.723   0.000  0.00  0.00    +0.277 C 
ENDBRANCH   6   9
ENDBRANCH   2   3
BRANCH   1  11
ATOM     11  C   LIG    1       -0.374   1.524   0.000  0.00  0.00    +0.332 C 
ATOM     12  O   LIG    1        0.234   2.599   0.000  0.00  0.00    -0.246 OA
BRANCH  11  13
ATOM     13  O   LIG    1        0.219   0.309   0.000  0.00  0.00    -0.459 OA
BRANCH  13  14
ATOM     14  C   LIG    1        1.637   0.184   0.000  0.00  0.00    +0.260 C 
BRANCH  14  15
ATOM     15  C   LIG    1        1.983  -1.310   0.000  0.00  0.00    +0.201 C 
BRANCH  15  16
ATOM     16  O   LIG    1        3.396  -1.451   0.000  0.00  0.00    -0.377 OA
BRANCH  16  17
ATOM     17  C   LIG    1        3.832  -2.803   0.000  0.00  0.00    +0.156 C 
ATOM     18  C   LIG    1        5.364  -2.828   0.000  0.00  0.00    +0.034 C 
ENDBRANCH  16  17
ENDBRANCH  15  16
ENDBRANCH  14  15
ENDBRANCH  13  14
ENDBRANCH  11  13
ENDBRANCH   1  11
TORSDOF 8
