REMARK  Name = DB15238
REMARK                            x       y       z     vdW  Elec       q    Type
REMARK                         _______ _______ _______ _____ _____    ______ ____
ROOT
ATOM      1  C   LIG    1        2.324  -0.971  -1.027  0.00  0.00    +0.158 A 
ATOM      2  N   LIG    1        1.557  -1.989  -1.509  0.00  0.00    -0.208 NA
ATOM      3  C   LIG    1        2.207  -3.092  -1.975  0.00  0.00    +0.182 A 
ATOM      4  N   LIG    1        3.556  -3.260  -1.998  0.00  0.00    -0.231 NA
ATOM      5  C   LIG    1        4.299  -2.230  -1.515  0.00  0.00    +0.155 A 
ATOM      6  C   LIG    1        3.723  -1.059  -1.016  0.00  0.00    +0.181 A 
ATOM      7  F   LIG    1        4.501  -0.057  -0.540  0.00  0.00    -0.200 F 
ENDROOT
BRANCH   3   8
ATOM      8  C   LIG    1        1.375  -4.227  -2.493  0.00  0.00    +0.130 A 
ATOM      9  C   LIG    1        1.812  -5.487  -2.927  0.00  0.00    +0.063 A 
ATOM     10  C   LIG    1        0.690  -6.220  -3.289  0.00  0.00    +0.091 A 
ATOM     11  N   LIG    1       -0.347  -5.329  -3.082  0.00  0.00    -0.257 N 
ATOM     12  N   LIG    1        0.065  -4.149  -2.593  0.00  0.00    -0.167 NA
BRANCH  10  13
ATOM     13  C   LIG    1        0.611  -7.608  -3.753  0.00  0.00    +0.131 A 
ATOM     14  C   LIG    1        1.672  -8.351  -4.276  0.00  0.00    +0.074 A 
ATOM     15  C   LIG    1        1.131  -9.580  -4.573  0.00  0.00    +0.231 A 
ATOM     16  O   LIG    1       -0.184  -9.574  -4.250  0.00  0.00    -0.362 OA
ATOM     17  N   LIG    1       -0.500  -8.316  -3.733  0.00  0.00    -0.077 NA
ENDBRANCH  10  13
BRANCH  11  18
ATOM     18  C   LIG    1       -1.789  -5.518  -3.268  0.00  0.00    +0.182 C 
BRANCH  18  19
ATOM     19  C   LIG    1       -2.569  -6.021  -2.049  0.00  0.00    +0.009 A 
ATOM     20  C   LIG    1       -1.934  -6.408  -0.859  0.00  0.00    +0.008 A 
ATOM     21  C   LIG    1       -2.681  -6.856   0.230  0.00  0.00    +0.000 A 
ATOM     22  C   LIG    1       -4.070  -6.925   0.142  0.00  0.00    +0.003 A 
ATOM     23  C   LIG    1       -4.712  -6.547  -1.036  0.00  0.00    +0.039 A 
ATOM     24  C   LIG    1       -3.966  -6.098  -2.127  0.00  0.00    +0.128 A 
ATOM     25  F   LIG    1       -4.608  -5.737  -3.263  0.00  0.00    -0.205 F 
ENDBRANCH  18  19
ENDBRANCH  11  18
ENDBRANCH   3   8
BRANCH   1  26
ATOM     26  N   LIG    1        1.706   0.188  -0.528  0.00  0.00    -0.323 N 
ATOM     27  H   LIG    1        2.277   0.947  -0.184  0.00  0.00    +0.148 HD
BRANCH  26  28
ATOM     28  C   LIG    1        0.250   0.352  -0.535  0.00  0.00    +0.156 C 
BRANCH  28  29
ATOM     29  C   LIG    1       -0.276   1.689   0.069  0.00  0.00    +0.252 C 
BRANCH  29  33
ATOM     30  N   LIG    1        0.978   3.866  -0.054  0.00  0.00    -0.327 N 
ATOM     31  H   LIG    1        1.134   3.782   0.940  0.00  0.00    +0.145 HD
ATOM     32  H   LIG    1        1.344   4.664  -0.552  0.00  0.00    +0.145 HD
ATOM     33  C   LIG    1        0.286   2.922  -0.707  0.00  0.00    +0.253 C 
ATOM     34  O   LIG    1        0.095   3.022  -1.919  0.00  0.00    -0.272 OA
ENDBRANCH  29  33
BRANCH  29  35
ATOM     35  C   LIG    1       -1.837   1.700   0.065  0.00  0.00    +0.428 C 
ATOM     36  F   LIG    1       -2.338   0.698   0.790  0.00  0.00    -0.167 F 
ATOM     37  F   LIG    1       -2.348   1.586  -1.164  0.00  0.00    -0.167 F 
ATOM     38  F   LIG    1       -2.332   2.824   0.590  0.00  0.00    -0.167 F 
ENDBRANCH  29  35
BRANCH  29  39
ATOM     39  O   LIG    1        0.141   1.736   1.435  0.00  0.00    -0.371 OA
ATOM     40  H   LIG    1       -0.226   0.975   1.892  0.00  0.00    +0.211 HD
ENDBRANCH  29  39
ENDBRANCH  28  29
ENDBRANCH  26  28
ENDBRANCH   1  26
TORSDOF 10
