REMARK  Name = DB15568
REMARK                            x       y       z     vdW  Elec       q    Type
REMARK                         _______ _______ _______ _____ _____    ______ ____
ROOT
ATOM      1  C   LIG    1       -0.123   0.413  -0.172  0.00  0.00    +0.132 A 
ATOM      2  N   LIG    1       -0.817   1.585  -0.175  0.00  0.00    -0.180 NA
ATOM      3  C   LIG    1       -2.161   1.508   0.008  0.00  0.00    +0.320 A 
ATOM      4  N   LIG    1       -2.859   0.365   0.198  0.00  0.00    -0.198 NA
ATOM      5  C   LIG    1       -2.159  -0.800   0.200  0.00  0.00    +0.070 A 
ATOM      6  C   LIG    1       -2.936  -2.089   0.467  0.00  0.00    +0.161 C 
ATOM      7  N   LIG    1       -2.269  -3.342   0.055  0.00  0.00    -0.323 N 
ATOM      8  C   LIG    1       -0.912  -3.309   0.623  0.00  0.00    +0.110 C 
ATOM      9  C   LIG    1       -0.044  -2.177   0.029  0.00  0.00    +0.059 C 
ATOM     10  C   LIG    1       -0.762  -0.829   0.031  0.00  0.00    +0.017 A 
ENDROOT
BRANCH   7  11
ATOM     11  C   LIG    1       -2.937  -4.563   0.158  0.00  0.00    +0.039 A 
ATOM     12  C   LIG    1       -2.681  -5.670  -0.747  0.00  0.00    +0.021 A 
ATOM     13  C   LIG    1       -1.918  -5.592  -1.975  0.00  0.00    +0.050 A 
ATOM     14 CL   LIG    1       -1.277  -4.125  -2.635  0.00  0.00    -0.083 Cl
ATOM     15  C   LIG    1       -1.704  -6.732  -2.748  0.00  0.00    +0.021 A 
ATOM     16  C   LIG    1       -2.231  -7.960  -2.389  0.00  0.00    +0.002 A 
ATOM     17  C   LIG    1       -3.007  -8.076  -1.248  0.00  0.00    +0.008 A 
ATOM     18  C   LIG    1       -3.251  -6.952  -0.423  0.00  0.00    -0.015 A 
ATOM     19  C   LIG    1       -4.062  -7.102   0.722  0.00  0.00    +0.008 A 
ATOM     20  C   LIG    1       -4.305  -6.027   1.557  0.00  0.00    +0.002 A 
ATOM     21  C   LIG    1       -3.739  -4.793   1.287  0.00  0.00    +0.024 A 
ENDBRANCH   7  11
BRANCH   1  27
ATOM     22  C   LIG    1        5.429   1.534  -0.270  0.00  0.00    +0.275 C 
ATOM     23  O   LIG    1        6.043   1.502  -1.341  0.00  0.00    -0.268 OA
ATOM     24  N   LIG    1        4.093   1.252  -0.167  0.00  0.00    -0.289 N 
ATOM     25  C   LIG    1        3.569   0.230   0.788  0.00  0.00    +0.107 C 
ATOM     26  C   LIG    1        2.041   0.441   0.961  0.00  0.00    +0.130 C 
ATOM     27  N   LIG    1        1.259   0.518  -0.277  0.00  0.00    -0.311 N 
ATOM     28  C   LIG    1        1.859   1.483  -1.203  0.00  0.00    +0.125 C 
ATOM     29  C   LIG    1        3.367   1.289  -1.453  0.00  0.00    +0.127 C 
BRANCH  22  31
ATOM     30  C   LIG    1        5.732   2.902   1.753  0.00  0.00    +0.055 C 
ATOM     31  C   LIG    1        6.145   1.929   0.921  0.00  0.00    +0.178 C 
ATOM     32  F   LIG    1        7.296   1.247   1.112  0.00  0.00    -0.201 F 
ENDBRANCH  22  31
BRANCH  25  33
ATOM     33  C   LIG    1        4.211  -0.004   2.182  0.00  0.00    +0.142 C 
BRANCH  33  34
ATOM     34  C   LIG    1        3.876   0.986   3.220  0.00  0.00    +0.064 C 
ATOM     35  N   LIG    1        3.609   1.762   4.036  0.00  0.00    -0.197 NA
ENDBRANCH  33  34
ENDBRANCH  25  33
ENDBRANCH   1  27
BRANCH   3  36
ATOM     36  O   LIG    1       -2.924   2.661   0.027  0.00  0.00    -0.461 OA
BRANCH  36  37
ATOM     37  C   LIG    1       -2.283   3.931  -0.123  0.00  0.00    +0.251 C 
BRANCH  37  38
ATOM     38  C   LIG    1       -3.304   5.073   0.064  0.00  0.00    +0.094 C 
ATOM     39  N   LIG    1       -4.446   5.101  -0.845  0.00  0.00    -0.299 NA
ATOM     40  C   LIG    1       -5.347   6.063  -0.225  0.00  0.00    +0.084 C 
ATOM     41  C   LIG    1       -5.286   5.765   1.273  0.00  0.00    +0.017 C 
ATOM     42  C   LIG    1       -4.101   5.475  -2.213  0.00  0.00    +0.105 C 
ATOM     43  C   LIG    1       -3.904   5.138   1.479  0.00  0.00    +0.023 C 
ENDBRANCH  37  38
ENDBRANCH  36  37
ENDBRANCH   3  36
TORSDOF 8
