REMARK  Name = DB15269
REMARK                            x       y       z     vdW  Elec       q    Type
REMARK                         _______ _______ _______ _____ _____    ______ ____
ROOT
ATOM      1  C   LIG    1        3.650  -0.454  -0.637  0.00  0.00    +0.163 C 
ATOM      2  N   LIG    1        4.121   0.527   0.360  0.00  0.00    -0.287 N 
ATOM      3  C   LIG    1        4.178   1.807  -0.091  0.00  0.00    +0.216 C 
ATOM      4  O   LIG    1        4.493   2.821   0.531  0.00  0.00    -0.276 OA
ATOM      5  C   LIG    1        3.765   1.770  -1.562  0.00  0.00    +0.098 C 
ATOM      6  C   LIG    1        3.719   0.306  -1.958  0.00  0.00    +0.041 C 
ENDROOT
BRANCH   2   7
ATOM      7  C   LIG    1        4.433   0.189   1.763  0.00  0.00    +0.073 C 
ATOM      8  C   LIG    1        3.302   0.510   2.773  0.00  0.00    +0.004 C 
ATOM      9  C   LIG    1        3.658   0.180   4.231  0.00  0.00    -0.077 C 
ATOM     10  N   LIG    1        4.106  -1.295   4.324  0.00  0.00    +0.382 N 
ATOM     11  H   LIG    1        3.358  -1.875   3.969  0.00  0.00    -0.081 HD
ATOM     12  C   LIG    1        5.362  -1.532   3.456  0.00  0.00    -0.077 C 
ATOM     13  C   LIG    1        5.028  -1.223   1.987  0.00  0.00    +0.004 C 
BRANCH  10  14
ATOM     14  C   LIG    1        4.366  -1.679   5.800  0.00  0.00    -0.043 C 
BRANCH  14  15
ATOM     15  C   LIG    1        4.592  -3.167   6.024  0.00  0.00    -0.064 A 
ATOM     16  C   LIG    1        3.508  -4.050   6.017  0.00  0.00    +0.006 A 
ATOM     17  C   LIG    1        3.701  -5.419   6.231  0.00  0.00    -0.032 A 
ATOM     18  C   LIG    1        2.503  -6.356   6.209  0.00  0.00    +0.045 C 
ATOM     19  C   LIG    1        4.998  -5.904   6.462  0.00  0.00    +0.044 A 
ATOM     20 CL   LIG    1        5.296  -7.587   6.732  0.00  0.00    -0.083 Cl
ATOM     21  C   LIG    1        6.078  -5.021   6.479  0.00  0.00    +0.020 A 
ATOM     22  C   LIG    1        5.878  -3.658   6.264  0.00  0.00    +0.003 A 
ENDBRANCH  14  15
ENDBRANCH  10  14
ENDBRANCH   2   7
BRANCH   1  25
ATOM     23  N   LIG    1        1.289  -0.089   0.011  0.00  0.00    -0.269 N 
ATOM     24  H   LIG    1        1.600   0.869   0.085  0.00  0.00    +0.156 HD
ATOM     25  C   LIG    1        2.230  -0.995  -0.341  0.00  0.00    +0.239 C 
ATOM     26  O   LIG    1        2.043  -2.208  -0.424  0.00  0.00    -0.273 OA
BRANCH  23  32
ATOM     27  C   LIG    1       -2.112  -1.549   0.602  0.00  0.00    +0.042 A 
ATOM     28  C   LIG    1       -2.706  -0.398   1.138  0.00  0.00    +0.036 A 
ATOM     29  C   LIG    1       -1.940   0.761   1.270  0.00  0.00    +0.041 A 
ATOM     30  C   LIG    1       -2.523   2.036   1.849  0.00  0.00    +0.065 C 
ATOM     31  N   LIG    1       -0.638   0.827   0.893  0.00  0.00    -0.237 NA
ATOM     32  C   LIG    1       -0.058  -0.278   0.360  0.00  0.00    +0.126 A 
ATOM     33  C   LIG    1       -0.771  -1.478   0.189  0.00  0.00    +0.057 A 
BRANCH  27  36
ATOM     34  C   LIG    1       -2.963  -5.267   0.209  0.00  0.00    +0.132 C 
ATOM     35  N   LIG    1       -2.367  -4.019   0.691  0.00  0.00    -0.304 N 
ATOM     36  C   LIG    1       -2.932  -2.809   0.426  0.00  0.00    +0.246 C 
ATOM     37  O   LIG    1       -4.091  -2.698   0.020  0.00  0.00    -0.270 OA
ATOM     38  C   LIG    1       -1.168  -4.233   1.506  0.00  0.00    +0.132 C 
ENDBRANCH  27  36
ENDBRANCH  23  32
ENDBRANCH   1  25
TORSDOF 6
