REMARK  Name = DB15197
REMARK                            x       y       z     vdW  Elec       q    Type
REMARK                         _______ _______ _______ _____ _____    ______ ____
ROOT
ATOM      1  C   LIG    1        1.780   0.428  -0.745  0.00  0.00    +0.280 C 
ATOM      2  C   LIG    1        2.502   0.270  -2.123  0.00  0.00    +0.260 C 
ATOM      3  O   LIG    1        1.819   0.080  -3.134  0.00  0.00    -0.271 OA
ATOM      4  N   LIG    1        3.808   0.388  -2.120  0.00  0.00    -0.282 N 
ATOM      5  H   LIG    1        4.227   0.497  -3.004  0.00  0.00    +0.155 HD
ATOM      6  C   LIG    1        4.676   0.380  -1.045  0.00  0.00    +0.043 A 
ATOM      7  C   LIG    1        5.926   0.971  -1.282  0.00  0.00    +0.024 A 
ATOM      8  C   LIG    1        6.887   1.093  -0.285  0.00  0.00    +0.002 A 
ATOM      9  C   LIG    1        6.619   0.614   0.988  0.00  0.00    +0.001 A 
ATOM     10  C   LIG    1        5.404  -0.009   1.248  0.00  0.00    +0.012 A 
ATOM     11  C   LIG    1        4.424  -0.170   0.250  0.00  0.00    +0.022 A 
ATOM     12  C   LIG    1        3.188  -0.950   0.594  0.00  0.00    +0.077 C 
ATOM     13  N   LIG    1        2.009  -0.705   0.145  0.00  0.00    -0.251 NA
ENDROOT
BRANCH   1  17
ATOM     14  N   LIG    1       -1.786   1.074  -0.550  0.00  0.00    -0.267 N 
ATOM     15  H   LIG    1       -1.910   0.535  -1.394  0.00  0.00    +0.156 HD
ATOM     16  C   LIG    1       -0.517   1.208  -0.115  0.00  0.00    +0.306 C 
ATOM     17  N   LIG    1        0.335   0.605  -0.962  0.00  0.00    -0.270 N 
ATOM     18  H   LIG    1       -0.064   0.004  -1.668  0.00  0.00    +0.153 HD
ATOM     19  O   LIG    1       -0.158   1.792   0.908  0.00  0.00    -0.252 OA
BRANCH  14  26
ATOM     20  F   LIG    1       -4.144   0.369  -1.730  0.00  0.00    -0.204 F 
ATOM     21  C   LIG    1       -4.177   1.165  -0.633  0.00  0.00    +0.145 A 
ATOM     22  C   LIG    1       -5.415   1.592  -0.149  0.00  0.00    +0.040 A 
ATOM     23  C   LIG    1       -5.483   2.412   0.976  0.00  0.00    +0.003 A 
ATOM     24  C   LIG    1       -4.312   2.806   1.619  0.00  0.00    +0.002 A 
ATOM     25  C   LIG    1       -3.072   2.382   1.142  0.00  0.00    +0.026 A 
ATOM     26  C   LIG    1       -2.990   1.553   0.007  0.00  0.00    +0.070 A 
ENDBRANCH  14  26
ENDBRANCH   1  17
BRANCH  12  27
ATOM     27  C   LIG    1        3.345  -2.110   1.500  0.00  0.00    +0.001 A 
ATOM     28  C   LIG    1        2.438  -2.316   2.552  0.00  0.00    +0.010 A 
ATOM     29  C   LIG    1        2.585  -3.410   3.400  0.00  0.00    +0.001 A 
ATOM     30  C   LIG    1        3.633  -4.305   3.199  0.00  0.00    +0.000 A 
ATOM     31  C   LIG    1        4.535  -4.118   2.156  0.00  0.00    +0.001 A 
ATOM     32  C   LIG    1        4.391  -3.024   1.306  0.00  0.00    +0.010 A 
ENDBRANCH  12  27
TORSDOF 3
