REMARK  Name = DB15353
REMARK                            x       y       z     vdW  Elec       q    Type
REMARK                         _______ _______ _______ _____ _____    ______ ____
ROOT
ATOM      1  C   LIG    1        3.489  -0.376   0.711  0.00  0.00    +0.166 C 
ATOM      2  N   LIG    1        3.682   1.059   0.364  0.00  0.00    -0.270 N 
ATOM      3  C   LIG    1        4.930   1.441  -0.003  0.00  0.00    +0.331 C 
ATOM      4  N   LIG    1        5.350   2.011   1.151  0.00  0.00    -0.132 N 
ATOM      5  C   LIG    1        4.393   1.948   2.248  0.00  0.00    +0.127 C 
ATOM      6  C   LIG    1        4.388   0.598   3.023  0.00  0.00    +0.029 C 
ATOM      7  O   LIG    1        5.553   1.196  -1.035  0.00  0.00    -0.250 OA
ATOM      8  C   LIG    1        3.188   2.025   1.345  0.00  0.00    +0.135 C 
ATOM      9  C   LIG    1        4.214  -0.641   2.092  0.00  0.00    +0.034 C 
ENDROOT
BRANCH   1  12
ATOM     10  N   LIG    1        1.353  -0.595  -0.470  0.00  0.00    -0.193 N 
ATOM     11  H   LIG    1        1.808  -0.455  -1.360  0.00  0.00    +0.182 HD
ATOM     12  C   LIG    1        1.985  -0.746   0.713  0.00  0.00    +0.256 C 
ATOM     13  O   LIG    1        1.425  -1.145   1.737  0.00  0.00    -0.272 OA
BRANCH  10  14
ATOM     14  O   LIG    1       -0.004  -0.913  -0.603  0.00  0.00    -0.282 OA
BRANCH  14  15
ATOM     15  C   LIG    1       -0.862   0.141  -0.142  0.00  0.00    +0.171 C 
BRANCH  15  16
ATOM     16  C   LIG    1       -1.082   1.297  -1.150  0.00  0.00    -0.056 C 
BRANCH  16  17
ATOM     17  N   LIG    1        0.175   2.155  -1.352  0.00  0.00    +0.380 N 
ATOM     18  H   LIG    1        0.465   2.561  -0.473  0.00  0.00    -0.090 HD
ATOM     19  H   LIG    1        0.928   1.586  -1.711  0.00  0.00    -0.090 HD
ATOM     20  H   LIG    1       -0.012   2.900  -2.008  0.00  0.00    -0.090 HD
ENDBRANCH  16  17
ENDBRANCH  15  16
ENDBRANCH  14  15
ENDBRANCH  10  14
ENDBRANCH   1  12
BRANCH   4  21
ATOM     21  O   LIG    1        6.689   1.993   1.527  0.00  0.00    -0.096 OA
BRANCH  21  22
ATOM     22  S   LIG    1        7.408   3.499   1.412  0.00  0.00    +0.227 S 
ATOM     23  O   LIG    1        6.641   4.341   2.338  0.00  0.00    -0.116 OA
ATOM     24  O   LIG    1        7.269   3.865  -0.002  0.00  0.00    -0.116 OA
BRANCH  22  25
ATOM     25  O   LIG    1        8.790   3.247   1.835  0.00  0.00    -0.230 OA
ATOM     26  H   LIG    1        9.232   2.687   1.178  0.00  0.00    +0.247 HD
ENDBRANCH  22  25
ENDBRANCH  21  22
ENDBRANCH   4  21
TORSDOF 8
