REMARK  Name = DB15418
REMARK                            x       y       z     vdW  Elec       q    Type
REMARK                         _______ _______ _______ _____ _____    ______ ____
ROOT
ATOM      1  C   LIG    1        1.780  -0.558   1.477  0.00  0.00    +0.128 C 
ATOM      2  N   LIG    1        3.228  -0.237   1.569  0.00  0.00    -0.257 N 
ATOM      3  C   LIG    1        3.642   0.789   2.383  0.00  0.00    +0.251 C 
ATOM      4  O   LIG    1        4.731   0.783   2.965  0.00  0.00    -0.270 OA
ATOM      5  C   LIG    1        4.143  -1.244   1.158  0.00  0.00    +0.079 A 
ATOM      6  C   LIG    1        5.413  -0.942   0.634  0.00  0.00    +0.030 A 
ATOM      7  C   LIG    1        6.250  -1.958   0.172  0.00  0.00    +0.040 A 
ATOM      8  C   LIG    1        5.818  -3.284   0.189  0.00  0.00    +0.127 A 
ATOM      9  C   LIG    1        4.541  -3.595   0.653  0.00  0.00    +0.085 A 
ATOM     10  F   LIG    1        6.630  -4.265  -0.265  0.00  0.00    -0.205 F 
ATOM     11  C   LIG    1        3.705  -2.581   1.119  0.00  0.00    +0.145 A 
ATOM     12  O   LIG    1        2.422  -2.958   1.472  0.00  0.00    -0.488 OA
ATOM     13  C   LIG    1        1.657  -1.955   2.153  0.00  0.00    +0.252 C 
ENDROOT
BRANCH   3  14
ATOM     14  C   LIG    1        2.753   2.000   2.581  0.00  0.00    +0.039 A 
ATOM     15  C   LIG    1        2.031   2.565   1.514  0.00  0.00    +0.017 A 
ATOM     16  C   LIG    1        1.229   3.691   1.706  0.00  0.00    +0.048 A 
ATOM     17  C   LIG    1        1.149   4.260   2.973  0.00  0.00    +0.142 A 
ATOM     18  O   LIG    1        0.405   5.406   3.163  0.00  0.00    -0.481 OA
ATOM     19  C   LIG    1       -0.170   5.549   4.483  0.00  0.00    +0.325 C 
ATOM     20  C   LIG    1        0.832   5.256   5.640  0.00  0.00    +0.255 C 
ATOM     21  N   LIG    1        1.773   4.358   5.281  0.00  0.00    -0.280 N 
ATOM     22  H   LIG    1        2.413   4.092   6.015  0.00  0.00    +0.155 HD
ATOM     23  O   LIG    1        0.782   5.782   6.750  0.00  0.00    -0.272 OA
ATOM     24  C   LIG    1        1.877   3.734   4.039  0.00  0.00    +0.076 A 
ATOM     25  C   LIG    1        2.683   2.612   3.844  0.00  0.00    +0.040 A 
ENDBRANCH   3  14
BRANCH   1  26
ATOM     26  C   LIG    1        1.216  -0.563   0.028  0.00  0.00    +0.122 C 
BRANCH  26  30
ATOM     27  C   LIG    1       -2.329  -1.539  -1.107  0.00  0.00    +0.128 C 
ATOM     28  N   LIG    1       -0.893  -1.402  -0.890  0.00  0.00    -0.318 N 
ATOM     29  H   LIG    1       -0.299  -2.010  -1.436  0.00  0.00    +0.148 HD
ATOM     30  C   LIG    1       -0.318  -0.541  -0.034  0.00  0.00    +0.215 C 
ATOM     31  O   LIG    1       -0.950   0.251   0.668  0.00  0.00    -0.276 OA
ENDBRANCH  26  30
ENDBRANCH   1  26
TORSDOF 3
