REMARK  Name = DB15036
REMARK                            x       y       z     vdW  Elec       q    Type
REMARK                         _______ _______ _______ _____ _____    ______ ____
ROOT
ATOM      1  C   LIG    1        5.056   2.442   2.849  0.00  0.00    +0.164 A 
ATOM      2  C   LIG    1        5.654   3.459   2.102  0.00  0.00    +0.051 A 
ATOM      3  C   LIG    1        6.703   4.203   2.641  0.00  0.00    +0.027 A 
ATOM      4  C   LIG    1        7.159   3.943   3.945  0.00  0.00    +0.036 A 
ATOM      5  C   LIG    1        6.561   2.917   4.684  0.00  0.00    +0.065 A 
ATOM      6  C   LIG    1        5.510   2.174   4.144  0.00  0.00    +0.167 A 
ATOM      7  F   LIG    1        4.940   1.190   4.876  0.00  0.00    -0.202 F 
ENDROOT
BRANCH   4   8
ATOM      8  N   LIG    1        8.217   4.631   4.565  0.00  0.00    -0.285 N 
ATOM      9  H   LIG    1        8.615   4.162   5.366  0.00  0.00    +0.155 HD
ATOM     10  C   LIG    1        8.702   5.860   4.284  0.00  0.00    +0.232 C 
ATOM     11  O   LIG    1        8.215   6.634   3.459  0.00  0.00    -0.274 OA
BRANCH  10  12
ATOM     12  C   LIG    1        9.865   6.354   5.172  0.00  0.00    +0.123 C 
ATOM     13  C   LIG    1       11.178   6.510   4.411  0.00  0.00    +0.027 C 
ATOM     14  C   LIG    1       11.012   5.369   5.388  0.00  0.00    +0.027 C 
BRANCH  12  15
ATOM     15  C   LIG    1        9.645   7.403   6.299  0.00  0.00    +0.232 C 
ATOM     16  N   LIG    1        8.372   7.819   6.494  0.00  0.00    -0.285 N 
ATOM     17  H   LIG    1        7.686   7.447   5.853  0.00  0.00    +0.155 HD
ATOM     18  O   LIG    1       10.608   7.805   6.955  0.00  0.00    -0.274 OA
BRANCH  16  19
ATOM     19  C   LIG    1        7.843   8.725   7.435  0.00  0.00    +0.034 A 
ATOM     20  C   LIG    1        8.563   9.293   8.500  0.00  0.00    +0.026 A 
ATOM     21  C   LIG    1        7.932  10.172   9.376  0.00  0.00    +0.040 A 
ATOM     22  C   LIG    1        6.587  10.485   9.198  0.00  0.00    +0.124 A 
ATOM     23  F   LIG    1        5.977  11.338  10.051  0.00  0.00    -0.205 F 
ATOM     24  C   LIG    1        5.864   9.922   8.149  0.00  0.00    +0.040 A 
ATOM     25  C   LIG    1        6.491   9.043   7.271  0.00  0.00    +0.026 A 
ENDBRANCH  16  19
ENDBRANCH  12  15
ENDBRANCH  10  12
ENDBRANCH   4   8
BRANCH   1  26
ATOM     26  O   LIG    1        4.020   1.716   2.313  0.00  0.00    -0.452 OA
BRANCH  26  30
ATOM     27  C   LIG    1        1.021  -1.064   0.116  0.00  0.00    +0.040 A 
ATOM     28  S   LIG    1        1.462   0.331   1.103  0.00  0.00    -0.081 S 
ATOM     29  C   LIG    1        3.171  -0.069   0.998  0.00  0.00    +0.080 A 
ATOM     30  C   LIG    1        4.279   0.590   1.558  0.00  0.00    +0.146 A 
ATOM     31  C   LIG    1        5.542   0.038   1.307  0.00  0.00    +0.067 A 
ATOM     32  C   LIG    1        5.639  -1.114   0.529  0.00  0.00    +0.115 A 
ATOM     33  N   LIG    1        4.574  -1.757  -0.016  0.00  0.00    -0.254 NA
ATOM     34  C   LIG    1        3.361  -1.242   0.217  0.00  0.00    +0.082 A 
ATOM     35  C   LIG    1        2.142  -1.786  -0.271  0.00  0.00    +0.046 A 
BRANCH  27  39
ATOM     36  C   LIG    1       -3.103  -1.786  -0.742  0.00  0.00    -0.046 A 
ATOM     37  C   LIG    1       -2.658  -0.693   0.008  0.00  0.00    +0.113 A 
ATOM     38  N   LIG    1       -1.348  -0.466   0.274  0.00  0.00    -0.254 NA
ATOM     39  C   LIG    1       -0.421  -1.344  -0.205  0.00  0.00    +0.078 A 
ATOM     40  C   LIG    1       -0.794  -2.465  -0.959  0.00  0.00    +0.029 A 
ATOM     41  C   LIG    1       -2.147  -2.686  -1.224  0.00  0.00    +0.005 A 
BRANCH  36  42
ATOM     42  C   LIG    1       -4.583  -2.008  -0.996  0.00  0.00    -0.045 C 
BRANCH  42  43
ATOM     43  N   LIG    1       -5.059  -1.390  -2.320  0.00  0.00    +0.383 N 
ATOM     44  H   LIG    1       -4.869  -0.398  -2.301  0.00  0.00    -0.085 HD
ATOM     45  H   LIG    1       -4.523  -1.791  -3.076  0.00  0.00    -0.085 HD
BRANCH  43  46
ATOM     46  C   LIG    1       -6.556  -1.598  -2.603  0.00  0.00    -0.054 C 
BRANCH  46  47
ATOM     47  C   LIG    1       -6.946  -0.929  -3.932  0.00  0.00    +0.140 C 
BRANCH  47  49
ATOM     48  C   LIG    1       -6.919   1.132  -5.118  0.00  0.00    +0.193 C 
ATOM     49  O   LIG    1       -6.584   0.447  -3.920  0.00  0.00    -0.385 OA
ENDBRANCH  47  49
ENDBRANCH  46  47
ENDBRANCH  43  46
ENDBRANCH  42  43
ENDBRANCH  36  42
ENDBRANCH  27  39
ENDBRANCH  26  30
ENDBRANCH   1  26
TORSDOF 12
