REMARK  Name = DB15665
REMARK                            x       y       z     vdW  Elec       q    Type
REMARK                         _______ _______ _______ _____ _____    ______ ____
ROOT
ATOM      1  S   LIG    1        4.608  -0.553  -1.051  0.00  0.00    -0.099 S 
ATOM      2  C   LIG    1        5.993  -1.349  -0.380  0.00  0.00    +0.046 A 
ATOM      3  C   LIG    1        5.643  -2.268   0.598  0.00  0.00    +0.011 A 
ATOM      4  C   LIG    1        4.263  -2.321   0.834  0.00  0.00    -0.033 A 
ATOM      5  C   LIG    1        3.549  -3.237   1.817  0.00  0.00    +0.064 C 
ATOM      6  C   LIG    1        2.062  -3.350   1.405  0.00  0.00    +0.165 C 
ATOM      7  O   LIG    1        1.517  -2.051   1.165  0.00  0.00    -0.373 OA
ATOM      8  C   LIG    1        2.027  -1.391  -0.002  0.00  0.00    +0.138 C 
ATOM      9  C   LIG    1        3.553  -1.464  -0.009  0.00  0.00    +0.020 A 
ENDROOT
BRANCH   8  10
ATOM     10  C   LIG    1        1.492   0.055  -0.055  0.00  0.00    -0.046 C 
BRANCH  10  11
ATOM     11  N   LIG    1       -0.045   0.057   0.018  0.00  0.00    +0.379 N 
ATOM     12  H   LIG    1       -0.326  -0.422   0.863  0.00  0.00    -0.086 HD
ATOM     13  H   LIG    1       -0.410  -0.464  -0.767  0.00  0.00    -0.086 HD
ATOM     14  C   LIG    1       -0.657   1.464   0.015  0.00  0.00    -0.100 C 
ENDBRANCH  10  11
ENDBRANCH   8  10
TORSDOF 2
