REMARK  Name = DB15097
REMARK                            x       y       z     vdW  Elec       q    Type
REMARK                         _______ _______ _______ _____ _____    ______ ____
ROOT
ATOM      1  C   LIG    1       -2.901   0.030  -0.062  0.00  0.00    +0.147 A 
ATOM      2  C   LIG    1       -2.117  -1.135  -0.097  0.00  0.00    +0.055 A 
ATOM      3  C   LIG    1       -0.718  -1.078  -0.066  0.00  0.00    +0.001 A 
ATOM      4  C   LIG    1       -0.089   0.172   0.016  0.00  0.00    +0.134 A 
ATOM      5  C   LIG    1       -0.860   1.337   0.043  0.00  0.00    +0.078 A 
ATOM      6  C   LIG    1       -2.255   1.275  -0.015  0.00  0.00    +0.150 A 
ENDROOT
BRANCH   3   7
ATOM      7  C   LIG    1        0.096  -2.379  -0.094  0.00  0.00    +0.017 C 
ATOM      8  C   LIG    1       -0.122  -3.215   1.181  0.00  0.00    +0.012 C 
ATOM      9  C   LIG    1       -0.161  -3.199  -1.373  0.00  0.00    +0.012 C 
ENDBRANCH   3   7
BRANCH   6  10
ATOM     10  S   LIG    1       -3.206   2.793   0.141  0.00  0.00    +0.060 S 
ATOM     11  O   LIG    1       -2.261   3.906   0.284  0.00  0.00    -0.153 OA
ATOM     12  O   LIG    1       -4.242   2.560   1.153  0.00  0.00    -0.153 OA
BRANCH  10  13
ATOM     13  N   LIG    1       -4.000   2.976  -1.411  0.00  0.00    -0.203 NA
ATOM     14  H   LIG    1       -3.366   3.161  -2.192  0.00  0.00    +0.144 HD
ATOM     15  H   LIG    1       -4.691   2.250  -1.617  0.00  0.00    +0.144 HD
ENDBRANCH  10  13
ENDBRANCH   6  10
BRANCH   1  17
ATOM     16  C   LIG    1       -4.980  -1.222  -0.119  0.00  0.00    +0.277 C 
ATOM     17  O   LIG    1       -4.284   0.020  -0.092  0.00  0.00    -0.493 OA
ENDBRANCH   1  17
BRANCH   4  18
ATOM     18  O   LIG    1        1.285   0.262   0.052  0.00  0.00    -0.451 OA
BRANCH  18  19
ATOM     19  C   LIG    1        1.922   0.830   1.139  0.00  0.00    +0.186 A 
ATOM     20  C   LIG    1        3.186   1.422   0.992  0.00  0.00    +0.164 A 
ATOM     21  N   LIG    1        3.859   1.971   2.037  0.00  0.00    -0.196 NA
ATOM     22  C   LIG    1        3.253   1.914   3.249  0.00  0.00    +0.214 A 
ATOM     23  N   LIG    1        2.044   1.356   3.504  0.00  0.00    -0.219 NA
ATOM     24  C   LIG    1        1.394   0.816   2.441  0.00  0.00    +0.164 A 
BRANCH  20  25
ATOM     25  N   LIG    1        3.812   1.474  -0.253  0.00  0.00    -0.340 N 
ATOM     26  H   LIG    1        4.721   1.907  -0.332  0.00  0.00    +0.144 HD
ATOM     27  H   LIG    1        3.349   1.077  -1.058  0.00  0.00    +0.144 HD
ENDBRANCH  20  25
BRANCH  22  28
ATOM     28  N   LIG    1        3.934   2.475   4.326  0.00  0.00    -0.327 N 
ATOM     29  H   LIG    1        3.516   2.447   5.245  0.00  0.00    +0.145 HD
ATOM     30  H   LIG    1        4.838   2.898   4.172  0.00  0.00    +0.145 HD
ENDBRANCH  22  28
ENDBRANCH  18  19
ENDBRANCH   4  18
TORSDOF 8
