REMARK  Name = DB15437
REMARK                            x       y       z     vdW  Elec       q    Type
REMARK                         _______ _______ _______ _____ _____    ______ ____
ROOT
ATOM      1  C   LIG    1        1.949   2.319  -1.477  0.00  0.00    +0.142 C 
ENDROOT
BRANCH   1   9
ATOM      2  C   LIG    1        1.592   0.313   0.057  0.00  0.00    -0.036 C 
ATOM      3  C   LIG    1        2.091  -0.873   0.891  0.00  0.00    +0.036 C 
ATOM      4  C   LIG    1        3.574  -0.706   1.270  0.00  0.00    +0.011 C 
ATOM      5  C   LIG    1        4.446  -0.331   0.044  0.00  0.00    -0.031 C 
ATOM      6  C   LIG    1        5.908  -0.201   0.526  0.00  0.00    +0.011 C 
ATOM      7  C   LIG    1        4.306  -1.369  -1.100  0.00  0.00    +0.011 C 
ATOM      8  C   LIG    1        3.960   1.069  -0.424  0.00  0.00    +0.039 C 
ATOM      9  C   LIG    1        2.437   1.137  -0.630  0.00  0.00    -0.048 C 
BRANCH   2  16
ATOM     10  C   LIG    1       -0.529  -0.509  -1.011  0.00  0.00    +0.130 A 
ATOM     11  C   LIG    1       -1.927  -0.432  -1.126  0.00  0.00    +0.084 A 
ATOM     12  C   LIG    1       -2.656   0.498  -0.388  0.00  0.00    +0.130 A 
ATOM     13  F   LIG    1       -4.000   0.540  -0.534  0.00  0.00    -0.205 F 
ATOM     14  C   LIG    1       -2.004   1.371   0.490  0.00  0.00    -0.009 A 
ATOM     15  C   LIG    1       -0.613   1.293   0.610  0.00  0.00    +0.018 A 
ATOM     16  C   LIG    1        0.129   0.376  -0.141  0.00  0.00    +0.020 A 
BRANCH  14  17
ATOM     17  C   LIG    1       -2.788   2.400   1.310  0.00  0.00    +0.016 C 
ATOM     18  C   LIG    1       -2.645   2.162   2.825  0.00  0.00    +0.012 C 
ATOM     19  C   LIG    1       -2.422   3.844   0.918  0.00  0.00    +0.012 C 
ENDBRANCH  14  17
BRANCH  10  21
ATOM     20  C   LIG    1       -0.368  -2.270  -2.671  0.00  0.00    +0.277 C 
ATOM     21  O   LIG    1        0.248  -1.408  -1.722  0.00  0.00    -0.494 OA
ENDBRANCH  10  21
ENDBRANCH   2  16
ENDBRANCH   1   9
BRANCH   1  22
ATOM     22  N   LIG    1        2.065   2.126  -2.927  0.00  0.00    -0.257 N 
ATOM     23  C   LIG    1        3.232   2.406  -3.635  0.00  0.00    +0.404 C 
ATOM     24  O   LIG    1        4.241   3.024  -3.302  0.00  0.00    -0.226 OA
ATOM     25  O   LIG    1        3.095   1.849  -4.856  0.00  0.00    -0.440 OA
ATOM     26  C   LIG    1        1.812   1.307  -5.100  0.00  0.00    +0.228 C 
ATOM     27  C   LIG    1        1.153   1.320  -3.718  0.00  0.00    +0.122 C 
ATOM     28  C   LIG    1       -0.307   1.825  -3.648  0.00  0.00    +0.032 C 
BRANCH  26  29
ATOM     29  C   LIG    1        1.079   2.009  -6.247  0.00  0.00    -0.004 A 
ATOM     30  C   LIG    1        1.100   3.403  -6.371  0.00  0.00    +0.019 A 
ATOM     31  C   LIG    1        0.420   4.039  -7.415  0.00  0.00    +0.056 A 
ATOM     32  C   LIG    1       -0.283   3.260  -8.343  0.00  0.00    +0.024 A 
ATOM     33  C   LIG    1       -0.315   1.865  -8.234  0.00  0.00    +0.056 A 
ATOM     34  C   LIG    1        0.371   1.249  -7.180  0.00  0.00    +0.019 A 
BRANCH  31  35
ATOM     35  C   LIG    1        0.447   5.563  -7.531  0.00  0.00    +0.417 C 
ATOM     36  F   LIG    1       -0.579   6.026  -8.248  0.00  0.00    -0.166 F 
ATOM     37  F   LIG    1        1.578   5.932  -8.130  0.00  0.00    -0.166 F 
ATOM     38  F   LIG    1        0.397   6.133  -6.325  0.00  0.00    -0.166 F 
ENDBRANCH  31  35
BRANCH  33  39
ATOM     39  C   LIG    1       -1.095   1.043  -9.258  0.00  0.00    +0.417 C 
ATOM     40  F   LIG    1       -1.258  -0.224  -8.872  0.00  0.00    -0.166 F 
ATOM     41  F   LIG    1       -0.435   1.046 -10.416  0.00  0.00    -0.166 F 
ATOM     42  F   LIG    1       -2.304   1.573  -9.454  0.00  0.00    -0.166 F 
ENDBRANCH  33  39
ENDBRANCH  26  29
ENDBRANCH   1  22
TORSDOF 8
