REMARK  Name = DB15254
REMARK                            x       y       z     vdW  Elec       q    Type
REMARK                         _______ _______ _______ _____ _____    ______ ____
ROOT
ATOM      1  C   LIG    1        1.721  -1.262   0.757  0.00  0.00    +0.045 A 
ATOM      2  C   LIG    1        2.160  -2.462  -0.005  0.00  0.00    +0.341 A 
ATOM      3  O   LIG    1        2.087  -2.655  -1.218  0.00  0.00    -0.245 OA
ATOM      4  O   LIG    1        2.713  -3.503   0.715  0.00  0.00    -0.422 OA
ATOM      5  C   LIG    1        2.836  -3.467   2.093  0.00  0.00    +0.143 A 
ATOM      6  C   LIG    1        3.397  -4.588   2.705  0.00  0.00    +0.093 A 
ATOM      7  C   LIG    1        3.546  -4.619   4.092  0.00  0.00    +0.135 A 
ATOM      8  C   LIG    1        3.140  -3.525   4.859  0.00  0.00    +0.047 A 
ATOM      9  C   LIG    1        2.580  -2.403   4.244  0.00  0.00    +0.015 A 
ATOM     10  C   LIG    1        2.422  -2.362   2.850  0.00  0.00    +0.021 A 
ATOM     11  C   LIG    1        1.845  -1.212   2.111  0.00  0.00    -0.030 A 
ATOM     12  C   LIG    1        1.396  -0.014   2.948  0.00  0.00    +0.045 C 
ENDROOT
BRANCH   1  13
ATOM     13  C   LIG    1        1.185  -0.115  -0.116  0.00  0.00    +0.080 C 
BRANCH  13  20
ATOM     14  N   LIG    1       -2.963   2.526  -0.788  0.00  0.00    -0.097 NA
ATOM     15  C   LIG    1       -2.385   1.413  -0.552  0.00  0.00    +0.189 A 
ATOM     16  N   LIG    1       -3.096   0.219  -0.349  0.00  0.00    -0.343 N 
ATOM     17  H   LIG    1       -4.104   0.281  -0.387  0.00  0.00    +0.167 HD
ATOM     18  C   LIG    1       -2.540  -1.023  -0.108  0.00  0.00    +0.085 A 
ATOM     19  C   LIG    1       -1.204  -1.170  -0.050  0.00  0.00    +0.024 A 
ATOM     20  C   LIG    1       -0.338  -0.002  -0.238  0.00  0.00    -0.003 A 
ATOM     21  C   LIG    1       -0.935   1.207  -0.463  0.00  0.00    +0.170 A 
ATOM     22  F   LIG    1       -0.154   2.301  -0.620  0.00  0.00    -0.201 F 
BRANCH  14  23
ATOM     23  S   LIG    1       -4.727   2.676  -0.861  0.00  0.00    +0.138 S 
ATOM     24  O   LIG    1       -5.244   3.280  -2.093  0.00  0.00    -0.134 OA
ATOM     25  O   LIG    1       -5.550   1.588  -0.318  0.00  0.00    -0.134 OA
BRANCH  23  27
ATOM     26  C   LIG    1       -4.720   3.608   1.749  0.00  0.00    +0.129 C 
ATOM     27  N   LIG    1       -4.872   3.969   0.327  0.00  0.00    -0.177 NA
ATOM     28  H   LIG    1       -4.310   4.789   0.083  0.00  0.00    +0.149 HD
ENDBRANCH  23  27
ENDBRANCH  14  23
ENDBRANCH  13  20
ENDBRANCH   1  13
BRANCH   7  29
ATOM     29  O   LIG    1        4.106  -5.721   4.696  0.00  0.00    -0.424 OA
BRANCH  29  30
ATOM     30  C   LIG    1        3.321  -6.730   5.224  0.00  0.00    +0.323 A 
ATOM     31  N   LIG    1        1.959  -6.651   5.139  0.00  0.00    -0.203 NA
ATOM     32  C   LIG    1        1.262  -7.685   5.679  0.00  0.00    +0.118 A 
ATOM     33  C   LIG    1        1.888  -8.775   6.289  0.00  0.00    +0.040 A 
ATOM     34  C   LIG    1        3.285  -8.760   6.323  0.00  0.00    +0.118 A 
ATOM     35  N   LIG    1        4.019  -7.745   5.796  0.00  0.00    -0.203 NA
ENDBRANCH  29  30
ENDBRANCH   7  29
TORSDOF 6
