REMARK  Name = DB15156
REMARK                            x       y       z     vdW  Elec       q    Type
REMARK                         _______ _______ _______ _____ _____    ______ ____
ROOT
ATOM      1  C   LIG    1       -0.759  -1.281   0.146  0.00  0.00    +0.131 A 
ATOM      2  C   LIG    1       -2.172  -1.230   0.040  0.00  0.00    +0.002 A 
ATOM      3  C   LIG    1       -2.778   0.035  -0.054  0.00  0.00    +0.034 A 
ATOM      4  C   LIG    1       -2.026   1.211  -0.079  0.00  0.00    +0.052 A 
ATOM      5  C   LIG    1       -0.636   1.136  -0.016  0.00  0.00    +0.037 A 
ATOM      6  C   LIG    1        0.010  -0.099   0.078  0.00  0.00    +0.019 A 
ENDROOT
BRANCH   4   7
ATOM      7  N   LIG    1       -2.674   2.461  -0.170  0.00  0.00    -0.269 N 
ATOM      8  C   LIG    1       -2.488   3.278  -1.269  0.00  0.00    +0.334 A 
ATOM      9  O   LIG    1       -1.768   3.027  -2.237  0.00  0.00    -0.246 OA
ATOM     10  N   LIG    1       -3.202   4.450  -1.222  0.00  0.00    -0.275 N 
ATOM     11  H   LIG    1       -3.074   5.061  -2.016  0.00  0.00    +0.173 HD
ATOM     12  C   LIG    1       -4.062   4.915  -0.267  0.00  0.00    +0.254 A 
ATOM     13  O   LIG    1       -4.637   5.997  -0.353  0.00  0.00    -0.268 OA
ATOM     14  C   LIG    1       -4.215   3.996   0.846  0.00  0.00    +0.088 A 
ATOM     15  C   LIG    1       -3.529   2.836   0.842  0.00  0.00    +0.101 A 
ENDBRANCH   4   7
BRANCH   2  16
ATOM     16  C   LIG    1       -3.045  -2.527   0.011  0.00  0.00    -0.009 C 
ATOM     17  C   LIG    1       -2.637  -3.427  -1.184  0.00  0.00    +0.015 C 
ATOM     18  C   LIG    1       -2.908  -3.315   1.338  0.00  0.00    +0.015 C 
ATOM     19  C   LIG    1       -4.564  -2.240  -0.167  0.00  0.00    +0.015 C 
ENDBRANCH   2  16
BRANCH   1  21
ATOM     20  C   LIG    1        0.496  -2.750   1.534  0.00  0.00    +0.277 C 
ATOM     21  O   LIG    1       -0.132  -2.502   0.277  0.00  0.00    -0.494 OA
ENDBRANCH   1  21
BRANCH   6  22
ATOM     22  C   LIG    1        1.489  -0.146   0.077  0.00  0.00    +0.012 C 
ATOM     23  C   LIG    1        2.308   0.776   0.624  0.00  0.00    +0.008 C 
BRANCH  23  24
ATOM     24  C   LIG    1        3.787   0.771   0.608  0.00  0.00    -0.025 A 
ATOM     25  C   LIG    1        4.528  -0.146  -0.149  0.00  0.00    +0.010 A 
ATOM     26  C   LIG    1        5.920  -0.115  -0.127  0.00  0.00    +0.025 A 
ATOM     27  C   LIG    1        6.585   0.827   0.659  0.00  0.00    +0.048 A 
ATOM     28  C   LIG    1        5.855   1.749   1.407  0.00  0.00    +0.025 A 
ATOM     29  C   LIG    1        4.463   1.717   1.384  0.00  0.00    +0.010 A 
BRANCH  27  30
ATOM     30  N   LIG    1        7.982   0.883   0.690  0.00  0.00    -0.221 N 
ATOM     31  H   LIG    1        8.289   1.742   1.122  0.00  0.00    +0.173 HD
BRANCH  30  32
ATOM     32  S   LIG    1        8.883  -0.482   1.374  0.00  0.00    +0.040 S 
ATOM     33  O   LIG    1        8.483  -1.693   0.649  0.00  0.00    -0.155 OA
ATOM     34  O   LIG    1        8.734  -0.397   2.830  0.00  0.00    -0.155 OA
ATOM     35  C   LIG    1       10.658  -0.052   0.911  0.00  0.00    +0.218 C 
ENDBRANCH  30  32
ENDBRANCH  27  30
ENDBRANCH  23  24
ENDBRANCH   6  22
TORSDOF 7
