REMARK  Name = DB15195
REMARK                            x       y       z     vdW  Elec       q    Type
REMARK                         _______ _______ _______ _____ _____    ______ ____
ROOT
ATOM      1  CA  VAL A 18      -14.437   2.015  -4.256  0.00  0.00    +0.161 C 
ATOM      2  C   VAL A 18      -15.093   3.387  -4.574  0.00  0.00    +0.234 C 
ATOM      3  O   VAL A 18      -16.001   3.375  -5.402  0.00  0.00    -0.274 OA
ATOM      4  N   GLN A  1      -14.695   4.579  -4.071  0.00  0.00    -0.302 N 
ATOM      5  H   GLN A  1      -15.204   5.365  -4.447  0.00  0.00    +0.150 HD
ATOM      6  CA  GLN A  1      -13.751   5.018  -3.029  0.00  0.00    +0.159 C 
ATOM      7  C   GLN A  1      -14.322   4.839  -1.605  0.00  0.00    +0.234 C 
ATOM      8  O   GLN A  1      -15.540   4.752  -1.466  0.00  0.00    -0.274 OA
ATOM      9  N   ALA A  2      -13.505   4.812  -0.534  0.00  0.00    -0.303 N 
ATOM     10  H   ALA A  2      -13.941   4.645   0.361  0.00  0.00    +0.149 HD
ATOM     11  CA  ALA A  2      -12.073   5.112  -0.435  0.00  0.00    +0.156 C 
ATOM     12  CB  ALA A  2      -11.823   5.667   0.979  0.00  0.00    +0.038 C 
ATOM     13  C   ALA A  2      -11.148   3.916  -0.704  0.00  0.00    +0.234 C 
ATOM     14  O   ALA A  2      -11.610   2.779  -0.759  0.00  0.00    -0.274 OA
ATOM     15  N   ASP A  3       -9.848   4.249  -0.819  0.00  0.00    -0.302 N 
ATOM     16  H   ASP A  3       -9.627   5.229  -0.719  0.00  0.00    +0.150 HD
ATOM     17  CA  ASP A  3       -8.665   3.419  -1.086  0.00  0.00    +0.169 C 
ATOM     18  C   ASP A  3       -8.214   3.515  -2.548  0.00  0.00    +0.234 C 
ATOM     19  O   ASP A  3       -9.027   3.426  -3.464  0.00  0.00    -0.274 OA
ATOM     20  N   GLU A  4       -6.893   3.687  -2.703  0.00  0.00    -0.302 N 
ATOM     21  H   GLU A  4       -6.332   3.758  -1.867  0.00  0.00    +0.150 HD
ATOM     22  CA  GLU A  4       -6.119   3.764  -3.943  0.00  0.00    +0.159 C 
ATOM     23  C   GLU A  4       -4.645   3.917  -3.532  0.00  0.00    +0.234 C 
ATOM     24  O   GLU A  4       -4.009   4.914  -3.870  0.00  0.00    -0.274 OA
ATOM     25  N   ALA A  5       -4.174   2.929  -2.744  0.00  0.00    -0.303 N 
ATOM     26  H   ALA A  5       -4.784   2.139  -2.594  0.00  0.00    +0.149 HD
ATOM     27  CA  ALA A  5       -2.999   2.935  -1.860  0.00  0.00    +0.156 C 
ATOM     28  CB  ALA A  5       -1.768   3.615  -2.497  0.00  0.00    +0.038 C 
ATOM     29  C   ALA A  5       -3.394   3.558  -0.497  0.00  0.00    +0.234 C 
ATOM     30  O   ALA A  5       -4.020   4.617  -0.500  0.00  0.00    -0.274 OA
ATOM     31  N   ARG A  6       -3.077   2.957   0.672  0.00  0.00    -0.302 N 
ATOM     32  H   ARG A  6       -3.392   3.431   1.506  0.00  0.00    +0.150 HD
ATOM     33  CA  ARG A  6       -2.269   1.759   0.963  0.00  0.00    +0.159 C 
ATOM     34  C   ARG A  6       -0.762   2.034   0.672  0.00  0.00    +0.234 C 
ATOM     35  O   ARG A  6       -0.406   3.211   0.636  0.00  0.00    -0.274 OA
ATOM     36  N   ARG A  7        0.188   1.088   0.545  0.00  0.00    -0.302 N 
ATOM     37  H   ARG A  7        1.119   1.446   0.391  0.00  0.00    +0.150 HD
ATOM     38  CA  ARG A  7        0.160  -0.374   0.505  0.00  0.00    +0.159 C 
ATOM     39  C   ARG A  7        0.148  -0.850  -0.968  0.00  0.00    +0.234 C 
ATOM     40  O   ARG A  7        0.490  -0.064  -1.851  0.00  0.00    -0.274 OA
ATOM     41  N   CYS A  8       -0.241  -2.095  -1.290  0.00  0.00    -0.302 N 
ATOM     42  H   CYS A  8       -0.266  -2.307  -2.278  0.00  0.00    +0.150 HD
ATOM     43  CA  CYS A  8       -0.566  -3.246  -0.449  0.00  0.00    +0.169 C 
ATOM     44  C   CYS A  8        0.615  -4.180  -0.072  0.00  0.00    +0.235 C 
ATOM     45  N   TYR A  9        1.705  -4.391  -0.843  0.00  0.00    -0.302 N 
ATOM     46  H   TYR A  9        2.382  -5.043  -0.471  0.00  0.00    +0.150 HD
ATOM     47  CA  TYR A  9        2.120  -3.852  -2.142  0.00  0.00    +0.163 C 
ATOM     48  C   TYR A  9        2.525  -4.987  -3.107  0.00  0.00    +0.234 C 
ATOM     49  N   ASN A 10        2.475  -4.851  -4.452  0.00  0.00    -0.302 N 
ATOM     50  H   ASN A 10        2.721  -5.699  -4.944  0.00  0.00    +0.150 HD
ATOM     51  CA  ASN A 10        2.288  -3.740  -5.414  0.00  0.00    +0.168 C 
ATOM     52  C   ASN A 10        3.662  -3.289  -5.952  0.00  0.00    +0.234 C 
ATOM     53  N   ASP A 11        4.006  -3.498  -7.244  0.00  0.00    -0.302 N 
ATOM     54  H   ASP A 11        4.926  -3.181  -7.514  0.00  0.00    +0.150 HD
ATOM     55  CA  ASP A 11        3.268  -4.136  -8.359  0.00  0.00    +0.170 C 
ATOM     56  C   ASP A 11        2.058  -3.274  -8.818  0.00  0.00    +0.237 C 
ATOM     57  N   PRO A 12        1.235  -3.749  -9.783  0.00  0.00    -0.288 N 
ATOM     58  CA  PRO A 12       -0.219  -3.468  -9.802  0.00  0.00    +0.162 C 
ATOM     59  C   PRO A 12       -0.908  -3.938  -8.498  0.00  0.00    +0.234 C 
ATOM     60  N   LYS A 13       -1.717  -3.116  -7.805  0.00  0.00    -0.302 N 
ATOM     61  H   LYS A 13       -2.095  -3.481  -6.943  0.00  0.00    +0.150 HD
ATOM     62  CA  LYS A 13       -2.255  -1.800  -8.157  0.00  0.00    +0.159 C 
ATOM     63  C   LYS A 13       -3.555  -1.616  -7.359  0.00  0.00    +0.234 C 
ATOM     64  N   CYS A 14       -3.460  -1.781  -6.026  0.00  0.00    -0.302 N 
ATOM     65  H   CYS A 14       -2.552  -1.960  -5.622  0.00  0.00    +0.150 HD
ATOM     66  CA  CYS A 14       -4.568  -1.730  -5.067  0.00  0.00    +0.169 C 
ATOM     67  CB  CYS A 14       -4.175  -2.642  -3.875  0.00  0.00    +0.112 C 
ATOM     68  SG  CYS A 14       -3.431  -1.868  -2.403  0.00  0.00    -0.091 S 
ATOM     69  SG  CYS A  8       -3.355  -3.365  -1.025  0.00  0.00    -0.091 S 
ATOM     70  C   CYS A 14       -4.896  -0.267  -4.665  0.00  0.00    +0.235 C 
ATOM     71  O   CYS A 14       -4.026   0.586  -4.837  0.00  0.00    -0.274 OA
ATOM     72  N   SER A 15       -6.078   0.098  -4.118  0.00  0.00    -0.301 N 
ATOM     73  H   SER A 15       -6.162   1.088  -3.945  0.00  0.00    +0.150 HD
ATOM     74  CA  SER A 15       -7.284  -0.616  -3.673  0.00  0.00    +0.184 C 
ATOM     75  C   SER A 15       -7.896  -1.585  -4.716  0.00  0.00    +0.236 C 
ATOM     76  O   SER A 15       -7.609  -2.779  -4.650  0.00  0.00    -0.274 OA
ATOM     77  N   ASP A 16       -8.722  -1.121  -5.675  0.00  0.00    -0.302 N 
ATOM     78  H   ASP A 16       -9.046  -1.777  -6.371  0.00  0.00    +0.150 HD
ATOM     79  CA  ASP A 16       -9.337   0.206  -5.778  0.00  0.00    +0.169 C 
ATOM     80  C   ASP A 16      -10.654   0.107  -6.572  0.00  0.00    +0.234 C 
ATOM     81  O   ASP A 16      -10.585   0.134  -7.799  0.00  0.00    -0.274 OA
ATOM     82  N   PHE A 17      -11.852  -0.017  -5.962  0.00  0.00    -0.302 N 
ATOM     83  H   PHE A 17      -12.639  -0.065  -6.593  0.00  0.00    +0.150 HD
ATOM     84  CA  PHE A 17      -12.272  -0.112  -4.556  0.00  0.00    +0.163 C 
ATOM     85  C   PHE A 17      -12.104   1.204  -3.757  0.00  0.00    +0.234 C 
ATOM     86  O   PHE A 17      -11.043   1.407  -3.180  0.00  0.00    -0.274 OA
ATOM     87  O   LYS A 13       -4.598  -1.368  -7.959  0.00  0.00    -0.274 OA
ATOM     88  O   PRO A 12       -0.673  -5.076  -8.094  0.00  0.00    -0.274 OA
ATOM     89  CB  PRO A 12       -0.724  -4.250 -11.032  0.00  0.00    +0.033 C 
ATOM     90  CG  PRO A 12        0.370  -5.260 -11.355  0.00  0.00    +0.021 C 
ATOM     91  CD  PRO A 12        1.632  -4.506 -10.969  0.00  0.00    +0.109 C 
ATOM     92  O   ASP A 11        1.828  -2.212  -8.241  0.00  0.00    -0.274 OA
ATOM     93  O   ASN A 10        4.431  -2.725  -5.177  0.00  0.00    -0.274 OA
ATOM     94  O   TYR A  9        2.875  -6.060  -2.615  0.00  0.00    -0.274 OA
ATOM     95  O   CYS A  8        0.521  -4.749   1.013  0.00  0.00    -0.274 OA
ATOM     96  CB  CYS A  8       -1.684  -4.069  -1.130  0.00  0.00    +0.112 C 
ATOM     97  N   VAL A 18      -13.108   2.093  -3.665  0.00  0.00    -0.302 N 
ATOM     98  H   VAL A 18      -12.944   2.925  -3.118  0.00  0.00    +0.150 HD
ENDROOT
BRANCH   1 100
ATOM     99  CG1 VAL A 18      -16.591   0.563  -4.245  0.00  0.00    +0.009 C 
ATOM    100  CB  VAL A 18      -15.395   1.089  -3.430  0.00  0.00    +0.012 C 
ATOM    101  CG2 VAL A 18      -15.885   1.683  -2.101  0.00  0.00    +0.009 C 
ENDBRANCH   1 100
BRANCH   6 102
ATOM    102  CB  GLN A  1      -13.470   6.517  -3.321  0.00  0.00    +0.041 C 
BRANCH 102 103
ATOM    103  CG  GLN A  1      -12.580   6.789  -4.553  0.00  0.00    +0.098 C 
BRANCH 103 104
ATOM    104  CD  GLN A  1      -11.212   6.104  -4.484  0.00  0.00    +0.211 C 
ATOM    105  OE1 GLN A  1      -10.949   5.161  -5.227  0.00  0.00    -0.276 OA
ATOM    106  NE2 GLN A  1      -10.345   6.569  -3.583  0.00  0.00    -0.329 N 
ATOM    107 HE21 GLN A  1       -9.434   6.142  -3.495  0.00  0.00    +0.145 HD
ATOM    108 HE22 GLN A  1      -10.589   7.348  -2.989  0.00  0.00    +0.145 HD
ENDBRANCH 103 104
ENDBRANCH 102 103
ENDBRANCH   6 102
BRANCH  22 109
ATOM    109  CB  GLU A  4       -6.646   4.858  -4.914  0.00  0.00    +0.043 C 
BRANCH 109 110
ATOM    110  CG  GLU A  4       -6.821   6.274  -4.319  0.00  0.00    +0.123 C 
BRANCH 110 111
ATOM    111  CD  GLU A  4       -7.383   7.276  -5.330  0.00  0.00    +0.305 C 
ATOM    112  OE2 GLU A  4       -7.508   7.058  -6.533  0.00  0.00    -0.251 OA
BRANCH 111 113
ATOM    113  OE1 GLU A  4       -7.730   8.454  -4.736  0.00  0.00    -0.481 OA
ATOM    114  HE1 GLU A  4       -8.083   9.092  -5.361  0.00  0.00    +0.295 HD
ENDBRANCH 111 113
ENDBRANCH 110 111
ENDBRANCH 109 110
ENDBRANCH  22 109
BRANCH  17 115
ATOM    115  CB  ASP A  3       -8.665   1.942  -0.600  0.00  0.00    +0.152 C 
BRANCH 115 116
ATOM    116  CG  ASP A  3       -8.934   1.685   0.893  0.00  0.00    +0.307 C 
ATOM    117  OD2 ASP A  3       -9.140   0.495   1.216  0.00  0.00    -0.251 OA
BRANCH 116 118
ATOM    118  OD1 ASP A  3       -8.785   2.625   1.707  0.00  0.00    -0.481 OA
ATOM    119  HD1 ASP A  3       -8.945   2.484   2.620  0.00  0.00    +0.295 HD
ENDBRANCH 116 118
ENDBRANCH 115 116
ENDBRANCH  17 115
BRANCH  33 120
ATOM    120  CB  ARG A  6       -2.969   0.492   0.381  0.00  0.00    +0.033 C 
BRANCH 120 121
ATOM    121  CG  ARG A  6       -3.318  -0.617   1.408  0.00  0.00    +0.017 C 
BRANCH 121 122
ATOM    122  CD  ARG A  6       -4.818  -0.967   1.496  0.00  0.00    +0.084 C 
BRANCH 122 123
ATOM    123  NE  ARG A  6       -5.617   0.086   2.151  0.00  0.00    -0.283 NA
ATOM    124  HE  ARG A  6       -6.079   0.735   1.529  0.00  0.00    +0.125 HD
BRANCH 123 125
ATOM    125  CZ  ARG A  6       -5.799   0.263   3.476  0.00  0.00    +0.167 C 
BRANCH 125 126
ATOM    126  NH2 ARG A  6       -6.563   1.280   3.894  0.00  0.00    -0.297 NA
ATOM    127 HH21 ARG A  6       -6.723   1.428   4.880  0.00  0.00    +0.121 HD
ATOM    128 HH22 ARG A  6       -7.035   1.871   3.223  0.00  0.00    +0.121 HD
ENDBRANCH 125 126
BRANCH 125 129
ATOM    129  NH1 ARG A  6       -5.243  -0.543   4.395  0.00  0.00    -0.297 NA
ATOM    130 HH11 ARG A  6       -4.678  -1.328   4.104  0.00  0.00    +0.121 HD
ATOM    131 HH12 ARG A  6       -5.418  -0.389   5.378  0.00  0.00    +0.121 HD
ENDBRANCH 125 129
ENDBRANCH 123 125
ENDBRANCH 122 123
ENDBRANCH 121 122
ENDBRANCH 120 121
ENDBRANCH  33 120
BRANCH  74 132
ATOM    132  CB  SER A 15       -7.061  -1.238  -2.273  0.00  0.00    +0.187 C 
BRANCH 132 133
ATOM    133  OG  SER A 15       -8.270  -1.701  -1.708  0.00  0.00    -0.393 OA
ATOM    134  H   SER A 15       -8.802  -0.943  -1.452  0.00  0.00    +0.209 HD
ENDBRANCH 132 133
ENDBRANCH  74 132
BRANCH  84 135
ATOM    135  CB  PHE A 17      -11.689  -1.355  -3.836  0.00  0.00    +0.067 C 
BRANCH 135 136
ATOM    136  CG  PHE A 17      -12.274  -1.621  -2.456  0.00  0.00    -0.045 A 
ATOM    137  CD2 PHE A 17      -13.534  -2.246  -2.337  0.00  0.00    +0.004 A 
ATOM    138  CE2 PHE A 17      -14.128  -2.384  -1.089  0.00  0.00    +0.000 A 
ATOM    139  CZ  PHE A 17      -13.497  -1.888   0.045  0.00  0.00    +0.000 A 
ATOM    140  CE1 PHE A 17      -12.272  -1.242  -0.059  0.00  0.00    +0.000 A 
ATOM    141  CD1 PHE A 17      -11.663  -1.095  -1.297  0.00  0.00    +0.004 A 
ENDBRANCH 135 136
ENDBRANCH  84 135
BRANCH  38 142
ATOM    142  CB  ARG A  7        1.423  -0.881   1.242  0.00  0.00    +0.033 C 
BRANCH 142 143
ATOM    143  CG  ARG A  7        1.617  -0.359   2.681  0.00  0.00    +0.017 C 
BRANCH 143 144
ATOM    144  CD  ARG A  7        0.451  -0.658   3.642  0.00  0.00    +0.084 C 
BRANCH 144 145
ATOM    145  NE  ARG A  7        0.636  -0.022   4.958  0.00  0.00    -0.283 NA
ATOM    146  HE  ARG A  7        1.086  -0.599   5.656  0.00  0.00    +0.125 HD
BRANCH 145 147
ATOM    147  CZ  ARG A  7        0.318   1.240   5.309  0.00  0.00    +0.167 C 
BRANCH 147 148
ATOM    148  NH1 ARG A  7       -0.233   2.112   4.448  0.00  0.00    -0.297 NA
ATOM    149 HH11 ARG A  7       -0.401   1.838   3.490  0.00  0.00    +0.121 HD
ATOM    150 HH12 ARG A  7       -0.454   3.052   4.744  0.00  0.00    +0.121 HD
ENDBRANCH 147 148
BRANCH 147 151
ATOM    151  NH2 ARG A  7        0.561   1.640   6.564  0.00  0.00    -0.297 NA
ATOM    152 HH21 ARG A  7        0.340   2.583   6.851  0.00  0.00    +0.121 HD
ATOM    153 HH22 ARG A  7        0.971   1.003   7.232  0.00  0.00    +0.121 HD
ENDBRANCH 147 151
ENDBRANCH 145 147
ENDBRANCH 144 145
ENDBRANCH 143 144
ENDBRANCH 142 143
ENDBRANCH  38 142
BRANCH  62 154
ATOM    154  CB  LYS A 13       -1.226  -0.667  -7.892  0.00  0.00    +0.032 C 
BRANCH 154 155
ATOM    155  CG  LYS A 13       -1.595   0.730  -8.432  0.00  0.00    +0.000 C 
BRANCH 155 156
ATOM    156  CD  LYS A 13       -2.509   1.565  -7.520  0.00  0.00    -0.019 C 
BRANCH 156 157
ATOM    157  CE  LYS A 13       -2.682   3.006  -8.020  0.00  0.00    -0.086 C 
BRANCH 157 158
ATOM    158  NZ  LYS A 13       -3.570   3.781  -7.137  0.00  0.00    +0.378 N 
ATOM    159  HZ1 LYS A 13       -4.480   3.338  -7.114  0.00  0.00    -0.090 HD
ATOM    160  HZ2 LYS A 13       -3.187   3.804  -6.203  0.00  0.00    -0.090 HD
ATOM    161  HZ3 LYS A 13       -3.664   4.722  -7.489  0.00  0.00    -0.090 HD
ENDBRANCH 157 158
ENDBRANCH 156 157
ENDBRANCH 155 156
ENDBRANCH 154 155
ENDBRANCH  62 154
BRANCH  55 162
ATOM    162  CB  ASP A 11        2.911  -5.649  -8.124  0.00  0.00    +0.152 C 
BRANCH 162 163
ATOM    163  CG  ASP A 11        3.962  -6.516  -7.405  0.00  0.00    +0.307 C 
ATOM    164  OD2 ASP A 11        3.527  -7.502  -6.770  0.00  0.00    -0.251 OA
BRANCH 163 165
ATOM    165  OD1 ASP A 11        5.174  -6.290  -7.622  0.00  0.00    -0.481 OA
ATOM    166  HD1 ASP A 11        5.830  -6.805  -7.196  0.00  0.00    +0.295 HD
ENDBRANCH 163 165
ENDBRANCH 162 163
ENDBRANCH  55 162
BRANCH  79 167
ATOM    167  CB  ASP A 16       -8.428   1.376  -6.276  0.00  0.00    +0.152 C 
BRANCH 167 168
ATOM    168  CG  ASP A 16       -7.272   1.079  -7.252  0.00  0.00    +0.307 C 
ATOM    169  OD2 ASP A 16       -6.345   1.920  -7.273  0.00  0.00    -0.251 OA
BRANCH 168 170
ATOM    170  OD1 ASP A 16       -7.386   0.137  -8.066  0.00  0.00    -0.481 OA
ATOM    171  HD1 ASP A 16       -6.689  -0.052  -8.664  0.00  0.00    +0.295 HD
ENDBRANCH 168 170
ENDBRANCH 167 168
ENDBRANCH  79 167
BRANCH  51 172
ATOM    172  CB  ASN A 10        1.398  -2.537  -4.986  0.00  0.00    +0.127 C 
BRANCH 172 173
ATOM    173  CG  ASN A 10       -0.096  -2.821  -4.757  0.00  0.00    +0.213 C 
ATOM    174  OD1 ASN A 10       -0.841  -1.894  -4.454  0.00  0.00    -0.276 OA
ATOM    175  ND2 ASN A 10       -0.548  -4.073  -4.874  0.00  0.00    -0.329 N 
ATOM    176 HD21 ASN A 10       -1.524  -4.283  -4.724  0.00  0.00    +0.145 HD
ATOM    177 HD22 ASN A 10        0.084  -4.821  -5.123  0.00  0.00    +0.145 HD
ENDBRANCH 172 173
ENDBRANCH  51 172
BRANCH  47 178
ATOM    178  CB  TYR A  9        3.252  -2.823  -1.894  0.00  0.00    +0.067 C 
BRANCH 178 179
ATOM    179  CG  TYR A  9        4.497  -3.342  -1.189  0.00  0.00    -0.045 A 
ATOM    180  CD2 TYR A  9        4.594  -3.270   0.217  0.00  0.00    +0.007 A 
ATOM    181  CE2 TYR A  9        5.746  -3.745   0.873  0.00  0.00    +0.045 A 
ATOM    182  CZ  TYR A  9        6.808  -4.292   0.126  0.00  0.00    +0.117 A 
ATOM    183  CE1 TYR A  9        6.715  -4.364  -1.278  0.00  0.00    +0.045 A 
ATOM    184  CD1 TYR A  9        5.564  -3.888  -1.934  0.00  0.00    +0.007 A 
BRANCH 182 185
ATOM    185  OH  TYR A  9        7.925  -4.752   0.760  0.00  0.00    -0.507 OA
ATOM    186  HH  TYR A  9        7.884  -4.654   1.714  0.00  0.00    +0.292 HD
ENDBRANCH 182 185
ENDBRANCH 178 179
ENDBRANCH  47 178
TORSDOF 45
