REMARK  Name = DB15246
REMARK                            x       y       z     vdW  Elec       q    Type
REMARK                         _______ _______ _______ _____ _____    ______ ____
ROOT
ATOM      1  C   LIG    1        3.628   1.198   0.115  0.00  0.00    -0.014 A 
ATOM      2  C   LIG    1        4.327  -0.018   0.161  0.00  0.00    +0.012 A 
ATOM      3  C   LIG    1        5.715  -0.055   0.122  0.00  0.00    +0.050 A 
ATOM      4  C   LIG    1        6.441   1.126   0.029  0.00  0.00    +0.159 A 
ATOM      5  C   LIG    1        5.774   2.356  -0.024  0.00  0.00    +0.166 A 
ATOM      6  C   LIG    1        4.363   2.406   0.022  0.00  0.00    +0.027 A 
ENDROOT
BRANCH   1   8
ATOM      7  C   LIG    1        1.324   0.128   0.017  0.00  0.00    +0.092 C 
ATOM      8  C   LIG    1        2.140   1.194   0.178  0.00  0.00    +0.015 C 
BRANCH   7   9
ATOM      9  C   LIG    1       -0.128   0.224   0.121  0.00  0.00    +0.333 C 
ATOM     10  O   LIG    1       -0.739   1.289   0.247  0.00  0.00    -0.246 OA
BRANCH   9  11
ATOM     11  O   LIG    1       -0.712  -0.997   0.067  0.00  0.00    -0.446 OA
BRANCH  11  12
ATOM     12  C   LIG    1       -2.135  -1.174   0.181  0.00  0.00    +0.289 C 
BRANCH  12  13
ATOM     13  C   LIG    1       -2.547  -2.550  -0.423  0.00  0.00    +0.346 C 
ATOM     14  O   LIG    1       -3.771  -2.725  -0.620  0.00  0.00    -0.247 OA
BRANCH  13  15
ATOM     15  O   LIG    1       -1.675  -3.413  -0.687  0.00  0.00    -0.478 OA
ATOM     16  H   LIG    1       -1.788  -4.297  -0.399  0.00  0.00    +0.295 HD
ENDBRANCH  13  15
ENDBRANCH  12  13
BRANCH  12  17
ATOM     17  C   LIG    1       -2.612  -1.024   1.660  0.00  0.00    +0.091 C 
BRANCH  17  18
ATOM     18  C   LIG    1       -1.960  -1.980   2.657  0.00  0.00    -0.040 A 
ATOM     19  C   LIG    1       -0.755  -1.636   3.278  0.00  0.00    +0.007 A 
ATOM     20  C   LIG    1       -0.158  -2.508   4.188  0.00  0.00    +0.049 A 
ATOM     21  C   LIG    1       -0.761  -3.731   4.487  0.00  0.00    +0.158 A 
ATOM     22  C   LIG    1       -1.969  -4.082   3.870  0.00  0.00    +0.158 A 
ATOM     23  C   LIG    1       -2.563  -3.205   2.960  0.00  0.00    +0.053 A 
BRANCH  21  24
ATOM     24  O   LIG    1       -0.157  -4.574   5.386  0.00  0.00    -0.503 OA
ATOM     25  H   LIG    1       -0.649  -5.390   5.507  0.00  0.00    +0.292 HD
ENDBRANCH  21  24
BRANCH  22  26
ATOM     26  O   LIG    1       -2.582  -5.279   4.144  0.00  0.00    -0.503 OA
ATOM     27  H   LIG    1       -3.387  -5.409   3.638  0.00  0.00    +0.292 HD
ENDBRANCH  22  26
ENDBRANCH  17  18
ENDBRANCH  12  17
ENDBRANCH  11  12
ENDBRANCH   9  11
ENDBRANCH   7   9
ENDBRANCH   1   8
BRANCH   4  28
ATOM     28  O   LIG    1        7.812   1.058  -0.016  0.00  0.00    -0.503 OA
ATOM     29  H   LIG    1        8.143   0.158   0.023  0.00  0.00    +0.292 HD
ENDBRANCH   4  28
BRANCH   5  30
ATOM     30  O   LIG    1        6.523   3.503  -0.149  0.00  0.00    -0.503 OA
ATOM     31  H   LIG    1        7.466   3.322  -0.177  0.00  0.00    +0.292 HD
ENDBRANCH   5  30
BRANCH   6  32
ATOM     32  C   LIG    1        3.648   3.707  -0.034  0.00  0.00    +0.013 C 
ATOM     33  C   LIG    1        3.951   4.803   0.692  0.00  0.00    +0.009 C 
BRANCH  33  34
ATOM     34  C   LIG    1        3.271   6.116   0.650  0.00  0.00    -0.021 A 
ATOM     35  C   LIG    1        3.774   7.156   1.441  0.00  0.00    +0.012 A 
ATOM     36  C   LIG    1        3.172   8.414   1.435  0.00  0.00    +0.050 A 
ATOM     37  C   LIG    1        2.054   8.652   0.635  0.00  0.00    +0.158 A 
ATOM     38  C   LIG    1        1.538   7.621  -0.159  0.00  0.00    +0.159 A 
ATOM     39  C   LIG    1        2.145   6.363  -0.149  0.00  0.00    +0.057 A 
BRANCH  37  40
ATOM     40  O   LIG    1        1.479   9.898   0.642  0.00  0.00    -0.503 OA
ATOM     41  H   LIG    1        1.930  10.515   1.222  0.00  0.00    +0.292 HD
ENDBRANCH  37  40
BRANCH  38  42
ATOM     42  O   LIG    1        0.438   7.827  -0.953  0.00  0.00    -0.503 OA
ATOM     43  H   LIG    1        0.092   8.720  -0.877  0.00  0.00    +0.292 HD
ENDBRANCH  38  42
ENDBRANCH  33  34
ENDBRANCH   6  32
TORSDOF 16
