REMARK  Name = DB15233
REMARK                            x       y       z     vdW  Elec       q    Type
REMARK                         _______ _______ _______ _____ _____    ______ ____
ROOT
ATOM      1  N   LIG    1       -2.942   0.333  -1.007  0.00  0.00    -0.310 N 
ATOM      2  C   LIG    1       -2.064   1.503  -1.138  0.00  0.00    +0.125 C 
ATOM      3  C   LIG    1       -0.623   1.165  -1.572  0.00  0.00    +0.127 C 
ATOM      4  N   LIG    1        0.054   0.182  -0.711  0.00  0.00    -0.297 N 
ATOM      5  C   LIG    1       -0.824  -0.981  -0.495  0.00  0.00    +0.127 C 
ATOM      6  C   LIG    1       -2.287  -0.648  -0.127  0.00  0.00    +0.125 C 
ENDROOT
BRANCH   1   9
ATOM      7  C   LIG    1       -6.413  -0.007  -0.140  0.00  0.00    +0.245 A 
ATOM      8  N   LIG    1       -5.069  -0.154  -0.099  0.00  0.00    -0.217 NA
ATOM      9  C   LIG    1       -4.330   0.475  -1.057  0.00  0.00    +0.149 A 
ATOM     10  C   LIG    1       -4.964   1.223  -2.083  0.00  0.00    +0.106 A 
ATOM     11  C   LIG    1       -4.609   1.954  -3.251  0.00  0.00    +0.041 A 
ATOM     12  C   LIG    1       -5.779   2.458  -3.813  0.00  0.00    +0.005 A 
ATOM     13  C   LIG    1       -6.850   2.039  -3.028  0.00  0.00    +0.121 A 
ATOM     14  N   LIG    1       -6.373   1.282  -1.985  0.00  0.00    -0.235 N 
ATOM     15  N   LIG    1       -7.134   0.699  -1.042  0.00  0.00    -0.155 NA
BRANCH  12  16
ATOM     16  C   LIG    1       -5.872   3.270  -5.008  0.00  0.00    +0.021 A 
ATOM     17  C   LIG    1       -4.911   4.140  -5.547  0.00  0.00    +0.143 A 
ATOM     18  N   LIG    1       -5.307   4.732  -6.651  0.00  0.00    -0.179 NA
ATOM     19  N   LIG    1       -6.544   4.264  -6.856  0.00  0.00    -0.274 N 
ATOM     20  C   LIG    1       -7.292   4.710  -8.018  0.00  0.00    +0.172 C 
ATOM     21  C   LIG    1       -6.935   3.371  -5.893  0.00  0.00    +0.116 A 
ENDBRANCH  12  16
ENDBRANCH   1   9
BRANCH   4  22
ATOM     22  C   LIG    1        1.445   0.117  -0.579  0.00  0.00    +0.218 A 
ATOM     23  N   LIG    1        2.183   1.163  -1.047  0.00  0.00    -0.222 NA
ATOM     24  C   LIG    1        3.528   1.101  -0.873  0.00  0.00    +0.121 A 
ATOM     25  C   LIG    1        4.170   0.031  -0.234  0.00  0.00    +0.013 A 
ATOM     26  C   LIG    1        3.324  -0.990   0.228  0.00  0.00    +0.121 A 
ATOM     27  N   LIG    1        1.976  -0.960   0.068  0.00  0.00    -0.222 NA
BRANCH  25  28
ATOM     28  C   LIG    1        5.706   0.030  -0.068  0.00  0.00    +0.068 C 
ATOM     29  C   LIG    1        6.107   1.160   0.917  0.00  0.00    +0.038 C 
BRANCH  28  30
ATOM     30  C   LIG    1        6.398   0.110  -1.450  0.00  0.00    -0.023 A 
ATOM     31  C   LIG    1        7.261   1.162  -1.795  0.00  0.00    +0.008 A 
ATOM     32  C   LIG    1        7.860   1.204  -3.051  0.00  0.00    +0.038 A 
ATOM     33  C   LIG    1        7.602   0.196  -3.976  0.00  0.00    +0.123 A 
ATOM     34  F   LIG    1        8.185   0.238  -5.195  0.00  0.00    -0.205 F 
ATOM     35  C   LIG    1        6.747  -0.854  -3.654  0.00  0.00    +0.038 A 
ATOM     36  C   LIG    1        6.149  -0.895  -2.398  0.00  0.00    +0.008 A 
ENDBRANCH  28  30
BRANCH  28  37
ATOM     37  N   LIG    1        6.178  -1.188   0.582  0.00  0.00    -0.318 NA
ATOM     38  H   LIG    1        5.793  -1.233   1.515  0.00  0.00    +0.119 HD
ATOM     39  H   LIG    1        7.178  -1.127   0.704  0.00  0.00    +0.119 HD
ENDBRANCH  28  37
ENDBRANCH  25  28
ENDBRANCH   4  22
TORSDOF 6
