REMARK  Name = DB15550
REMARK                            x       y       z     vdW  Elec       q    Type
REMARK                         _______ _______ _______ _____ _____    ______ ____
ROOT
ATOM      1  C   LIG    1        1.631  -0.801   1.008  0.00  0.00    +0.286 C 
ENDROOT
BRANCH   1   4
ATOM      2  C   LIG    1        5.532  -1.467   2.155  0.00  0.00    +0.160 C 
ATOM      3  O   LIG    1        4.143  -1.596   1.852  0.00  0.00    -0.298 OA
ATOM      4  P   LIG    1        3.438  -0.529   0.840  0.00  0.00    +0.359 P 
ATOM      5  O   LIG    1        3.988  -0.594  -0.543  0.00  0.00    -0.256 OA
ATOM      6  O   LIG    1        3.747   0.895   1.577  0.00  0.00    -0.306 OA
ATOM      7  C   LIG    1        4.878   1.023   2.434  0.00  0.00    +0.173 C 
ATOM      8  C   LIG    1        6.010   0.013   2.146  0.00  0.00    +0.065 C 
BRANCH   2   9
ATOM      9  C   LIG    1        5.835  -2.158   3.483  0.00  0.00    -0.017 A 
ATOM     10  C   LIG    1        7.097  -2.725   3.700  0.00  0.00    +0.026 A 
ATOM     11  C   LIG    1        7.391  -3.354   4.911  0.00  0.00    +0.041 A 
ATOM     12 CL   LIG    1        8.949  -4.050   5.166  0.00  0.00    -0.084 Cl
ATOM     13  C   LIG    1        6.425  -3.417   5.916  0.00  0.00    +0.020 A 
ATOM     14  C   LIG    1        5.167  -2.850   5.710  0.00  0.00    +0.002 A 
ATOM     15  C   LIG    1        4.873  -2.222   4.499  0.00  0.00    +0.006 A 
ENDBRANCH   2   9
ENDBRANCH   1   4
BRANCH   1  16
ATOM     16  O   LIG    1        0.998   0.250   0.293  0.00  0.00    -0.366 OA
BRANCH  16  17
ATOM     17  C   LIG    1       -0.419   0.175   0.314  0.00  0.00    +0.182 C 
BRANCH  17  18
ATOM     18  C   LIG    1       -0.982   1.365  -0.478  0.00  0.00    +0.153 C 
BRANCH  18  19
ATOM     19  N   LIG    1       -2.453   1.331  -0.530  0.00  0.00    -0.313 N 
ATOM     20  C   LIG    1       -3.208   1.064  -1.614  0.00  0.00    +0.201 A 
ATOM     21  N   LIG    1       -4.494   1.097  -1.365  0.00  0.00    -0.231 NA
ATOM     22  C   LIG    1       -4.577   1.403  -0.059  0.00  0.00    +0.147 A 
ATOM     23  C   LIG    1       -5.692   1.583   0.794  0.00  0.00    +0.147 A 
ATOM     24  N   LIG    1       -5.462   1.896   2.099  0.00  0.00    -0.219 NA
ATOM     25  C   LIG    1       -4.188   2.017   2.501  0.00  0.00    +0.225 A 
ATOM     26  N   LIG    1       -3.056   1.872   1.794  0.00  0.00    -0.216 NA
ATOM     27  C   LIG    1       -3.319   1.560   0.501  0.00  0.00    +0.165 A 
BRANCH  23  28
ATOM     28  N   LIG    1       -7.010   1.453   0.361  0.00  0.00    -0.341 N 
ATOM     29  H   LIG    1       -7.762   1.591   1.019  0.00  0.00    +0.144 HD
ATOM     30  H   LIG    1       -7.193   1.222  -0.605  0.00  0.00    +0.144 HD
ENDBRANCH  23  28
ENDBRANCH  18  19
ENDBRANCH  17  18
ENDBRANCH  16  17
ENDBRANCH   1  16
TORSDOF 7
