REMARK  Name = DB15221
REMARK                            x       y       z     vdW  Elec       q    Type
REMARK                         _______ _______ _______ _____ _____    ______ ____
ROOT
ATOM      1  C   LIG    1        1.480   0.086   0.348  0.00  0.00    +0.053 A 
ATOM      2  C   LIG    1        2.042  -0.894  -0.472  0.00  0.00    +0.025 A 
ATOM      3  C   LIG    1        3.420  -1.012  -0.623  0.00  0.00    +0.013 A 
ATOM      4  C   LIG    1        4.300  -0.125   0.056  0.00  0.00    +0.018 A 
ATOM      5  C   LIG    1        5.726  -0.162  -0.027  0.00  0.00    +0.148 A 
ATOM      6  N   LIG    1        6.545   0.695   0.628  0.00  0.00    -0.244 NA
ATOM      7  C   LIG    1        5.976   1.644   1.407  0.00  0.00    +0.113 A 
ATOM      8  C   LIG    1        4.600   1.783   1.570  0.00  0.00    +0.028 A 
ATOM      9  C   LIG    1        3.733   0.890   0.889  0.00  0.00    -0.012 A 
ATOM     10  C   LIG    1        2.325   0.979   1.018  0.00  0.00    +0.033 A 
ENDROOT
BRANCH   1  14
ATOM     11  C   LIG    1       -2.656   2.896   0.392  0.00  0.00    +0.010 C 
ATOM     12  C   LIG    1       -2.006   1.531   0.111  0.00  0.00    +0.021 C 
ATOM     13  C   LIG    1       -0.571   1.476   0.684  0.00  0.00    +0.137 C 
ATOM     14  N   LIG    1        0.078   0.174   0.476  0.00  0.00    -0.193 N 
ATOM     15  S   LIG    1       -0.789  -1.251   1.138  0.00  0.00    +0.112 S 
ATOM     16  O   LIG    1       -0.237  -2.518   0.644  0.00  0.00    -0.138 OA
ATOM     17  O   LIG    1       -0.979  -1.098   2.584  0.00  0.00    -0.138 OA
ATOM     18  N   LIG    1       -2.310  -0.928   0.312  0.00  0.00    -0.177 NA
ATOM     19  H   LIG    1       -2.976  -1.705   0.324  0.00  0.00    +0.149 HD
ATOM     20  C   LIG    1       -2.903   0.383   0.611  0.00  0.00    +0.112 C 
ENDBRANCH   1  14
BRANCH   5  21
ATOM     21  C   LIG    1        6.447  -1.140  -0.836  0.00  0.00    +0.120 C 
ATOM     22  N   LIG    1        7.016  -1.916  -1.478  0.00  0.00    -0.189 NA
ENDBRANCH   5  21
TORSDOF 2
