REMARK  Name = DB15084
REMARK                            x       y       z     vdW  Elec       q    Type
REMARK                         _______ _______ _______ _____ _____    ______ ____
ROOT
ATOM      1  P   LIG    1        2.386   0.245  -0.306  0.00  0.00    +0.239 P 
ATOM      2  O   LIG    1        3.219  -0.900  -0.761  0.00  0.00    -0.285 OA
ENDROOT
BRANCH   1   3
ATOM      3  N   LIG    1        0.706  -0.035  -0.428  0.00  0.00    -0.239 NA
ATOM      4  H   LIG    1        0.351  -0.959  -0.181  0.00  0.00    +0.131 HD
BRANCH   3   5
ATOM      5  C   LIG    1       -0.325   0.997  -0.595  0.00  0.00    +0.174 C 
BRANCH   5   6
ATOM      6  C   LIG    1       -0.836   1.447   0.758  0.00  0.00    +0.325 C 
ATOM      7  O   LIG    1       -1.791   0.926   1.338  0.00  0.00    -0.249 OA
BRANCH   6   8
ATOM      8  O   LIG    1       -0.094   2.473   1.233  0.00  0.00    -0.463 OA
BRANCH   8   9
ATOM      9  C   LIG    1       -0.332   3.018   2.524  0.00  0.00    +0.235 C 
BRANCH   9  11
ATOM     10  C   LIG    1        2.056   3.937   2.659  0.00  0.00    +0.010 C 
ATOM     11  C   LIG    1        0.552   4.256   2.767  0.00  0.00    +0.020 C 
ATOM     12  C   LIG    1        0.223   4.897   4.126  0.00  0.00    +0.010 C 
ENDBRANCH   9  11
ENDBRANCH   8   9
ENDBRANCH   6   8
ENDBRANCH   5   6
BRANCH   5  13
ATOM     13  C   LIG    1       -1.474   0.537  -1.525  0.00  0.00    +0.065 C 
BRANCH  13  14
ATOM     14  C   LIG    1       -1.037   0.287  -2.959  0.00  0.00    -0.045 A 
ATOM     15  C   LIG    1       -0.588  -0.992  -3.354  0.00  0.00    +0.004 A 
ATOM     16  C   LIG    1       -0.079  -1.185  -4.632  0.00  0.00    +0.000 A 
ATOM     17  C   LIG    1        0.017  -0.118  -5.516  0.00  0.00    +0.000 A 
ATOM     18  C   LIG    1       -0.384   1.155  -5.127  0.00  0.00    +0.000 A 
ATOM     19  C   LIG    1       -0.895   1.368  -3.854  0.00  0.00    +0.004 A 
ENDBRANCH  13  14
ENDBRANCH   5  13
ENDBRANCH   3   5
ENDBRANCH   1   3
BRANCH   1  20
ATOM     20  N   LIG    1        2.520   0.607   1.353  0.00  0.00    -0.239 NA
ATOM     21  H   LIG    1        2.192   1.511   1.696  0.00  0.00    +0.131 HD
BRANCH  20  22
ATOM     22  C   LIG    1        2.769  -0.406   2.381  0.00  0.00    +0.174 C 
BRANCH  22  23
ATOM     23  C   LIG    1        1.497  -1.147   2.753  0.00  0.00    +0.325 C 
ATOM     24  O   LIG    1        1.306  -2.320   2.427  0.00  0.00    -0.249 OA
BRANCH  23  25
ATOM     25  O   LIG    1        0.629  -0.383   3.460  0.00  0.00    -0.463 OA
BRANCH  25  26
ATOM     26  C   LIG    1       -0.583  -0.943   3.957  0.00  0.00    +0.235 C 
BRANCH  26  27
ATOM     27  C   LIG    1       -1.375   0.080   4.795  0.00  0.00    +0.020 C 
ATOM     28  C   LIG    1       -2.685  -0.540   5.310  0.00  0.00    +0.010 C 
ATOM     29  C   LIG    1       -0.545   0.666   5.954  0.00  0.00    +0.010 C 
ENDBRANCH  26  27
ENDBRANCH  25  26
ENDBRANCH  23  25
ENDBRANCH  22  23
BRANCH  22  30
ATOM     30  C   LIG    1        3.490   0.198   3.615  0.00  0.00    +0.065 C 
BRANCH  30  31
ATOM     31  C   LIG    1        3.976  -0.803   4.652  0.00  0.00    -0.045 A 
ATOM     32  C   LIG    1        5.157  -1.541   4.425  0.00  0.00    +0.004 A 
ATOM     33  C   LIG    1        5.548  -2.520   5.328  0.00  0.00    +0.000 A 
ATOM     34  C   LIG    1        4.767  -2.797   6.444  0.00  0.00    +0.000 A 
ATOM     35  C   LIG    1        3.581  -2.106   6.660  0.00  0.00    +0.000 A 
ATOM     36  C   LIG    1        3.172  -1.123   5.768  0.00  0.00    +0.004 A 
ENDBRANCH  30  31
ENDBRANCH  22  30
ENDBRANCH  20  22
ENDBRANCH   1  20
BRANCH   1  37
ATOM     37  C   LIG    1        2.694   1.868  -1.142  0.00  0.00    +0.260 C 
BRANCH  37  38
ATOM     38  O   LIG    1        4.072   2.195  -0.994  0.00  0.00    -0.368 OA
BRANCH  38  39
ATOM     39  C   LIG    1        4.919   1.694  -2.021  0.00  0.00    +0.182 C 
BRANCH  39  40
ATOM     40  C   LIG    1        6.371   2.064  -1.678  0.00  0.00    +0.153 C 
BRANCH  40  41
ATOM     41  N   LIG    1        7.292   1.506  -2.660  0.00  0.00    -0.313 N 
ATOM     42  C   LIG    1        7.476   1.893  -3.973  0.00  0.00    +0.167 A 
ATOM     43  N   LIG    1        6.883   2.873  -4.665  0.00  0.00    -0.195 NA
ATOM     44  C   LIG    1        7.320   2.962  -5.950  0.00  0.00    +0.216 A 
ATOM     45  N   LIG    1        8.255   2.185  -6.556  0.00  0.00    -0.198 NA
ATOM     46  C   LIG    1        8.841   1.195  -5.821  0.00  0.00    +0.152 A 
ATOM     47  C   LIG    1        8.464   1.012  -4.477  0.00  0.00    +0.148 A 
ATOM     48  N   LIG    1        8.869   0.122  -3.515  0.00  0.00    -0.231 NA
ATOM     49  C   LIG    1        8.154   0.445  -2.465  0.00  0.00    +0.201 A 
BRANCH  44  50
ATOM     50  N   LIG    1        6.745   3.957  -6.731  0.00  0.00    -0.327 N 
ATOM     51  H   LIG    1        6.051   4.566  -6.323  0.00  0.00    +0.145 HD
ATOM     52  H   LIG    1        7.035   4.059  -7.692  0.00  0.00    +0.145 HD
ENDBRANCH  44  50
BRANCH  46  53
ATOM     53  N   LIG    1        9.817   0.363  -6.396  0.00  0.00    -0.324 N 
ATOM     54  H   LIG    1       10.124  -0.441  -5.868  0.00  0.00    +0.148 HD
BRANCH  53  55
ATOM     55  C   LIG    1       10.116   0.412  -7.822  0.00  0.00    +0.072 C 
ATOM     56  C   LIG    1       10.889   1.605  -8.339  0.00  0.00    +0.024 C 
ATOM     57  C   LIG    1       11.561   0.254  -8.230  0.00  0.00    +0.024 C 
ENDBRANCH  53  55
ENDBRANCH  46  53
ENDBRANCH  40  41
ENDBRANCH  39  40
ENDBRANCH  38  39
ENDBRANCH  37  38
ENDBRANCH   1  37
TORSDOF 24
