REMARK  Name = DB15265
REMARK                            x       y       z     vdW  Elec       q    Type
REMARK                         _______ _______ _______ _____ _____    ______ ____
ROOT
ATOM      1  N   LIG    1        1.550  -1.713   1.328  0.00  0.00    +0.383 N 
ATOM      2  H   LIG    1        2.363  -1.560   0.748  0.00  0.00    -0.081 HD
ATOM      3  C   LIG    1        1.283  -3.244   1.323  0.00  0.00    -0.059 C 
ATOM      4  C   LIG    1        2.486  -4.151   1.678  0.00  0.00    +0.088 C 
ATOM      5  N   LIG    1        3.821  -3.573   1.854  0.00  0.00    -0.317 N 
ATOM      6  C   LIG    1        3.935  -2.819   3.109  0.00  0.00    +0.104 C 
ATOM      7  C   LIG    1        3.411  -1.372   3.084  0.00  0.00    +0.000 C 
ATOM      8  C   LIG    1        1.928  -1.169   2.730  0.00  0.00    -0.077 C 
ENDROOT
BRANCH   1  13
ATOM      9  N   LIG    1       -2.030  -0.511  -0.924  0.00  0.00    +0.381 N 
ATOM     10  H   LIG    1       -2.165  -1.504  -1.057  0.00  0.00    -0.081 HD
ATOM     11  C   LIG    1       -0.646  -0.161  -1.536  0.00  0.00    -0.080 C 
ATOM     12  C   LIG    1        0.436  -1.026  -0.865  0.00  0.00    -0.034 C 
ATOM     13  C   LIG    1        0.424  -0.860   0.670  0.00  0.00    -0.072 C 
ATOM     14  C   LIG    1       -0.971  -1.142   1.274  0.00  0.00    -0.034 C 
ATOM     15  C   LIG    1       -2.060  -0.280   0.610  0.00  0.00    -0.080 C 
BRANCH   9  17
ATOM     16  C   LIG    1       -3.440  -0.416  -3.029  0.00  0.00    -0.014 C 
ATOM     17  C   LIG    1       -3.226   0.192  -1.630  0.00  0.00    -0.075 C 
ATOM     18  C   LIG    1       -3.086   1.730  -1.653  0.00  0.00    -0.014 C 
ENDBRANCH   9  17
ENDBRANCH   1  13
BRANCH   5  19
ATOM     19  C   LIG    1        4.575  -3.181   0.720  0.00  0.00    +0.122 A 
ATOM     20  N   LIG    1        5.711  -2.462   0.953  0.00  0.00    -0.227 NA
ATOM     21  C   LIG    1        6.548  -2.128  -0.072  0.00  0.00    +0.128 A 
ATOM     22  C   LIG    1        6.277  -2.539  -1.384  0.00  0.00    +0.033 A 
ATOM     23  C   LIG    1        5.141  -3.306  -1.631  0.00  0.00    +0.006 A 
ATOM     24  C   LIG    1        4.293  -3.644  -0.578  0.00  0.00    +0.044 A 
BRANCH  21  25
ATOM     25  C   LIG    1        7.784  -1.306   0.239  0.00  0.00    +0.267 C 
ATOM     26  N   LIG    1        7.939  -0.937   1.534  0.00  0.00    -0.280 N 
ATOM     27  H   LIG    1        7.201  -1.218   2.162  0.00  0.00    +0.155 HD
ATOM     28  O   LIG    1        8.565  -1.009  -0.666  0.00  0.00    -0.268 OA
BRANCH  26  29
ATOM     29  C   LIG    1        8.975  -0.209   2.149  0.00  0.00    +0.037 A 
ATOM     30  C   LIG    1       10.173   0.187   1.525  0.00  0.00    +0.043 A 
ATOM     31  C   LIG    1       11.114   0.899   2.271  0.00  0.00    +0.112 A 
ATOM     32  N   LIG    1       10.931   1.229   3.575  0.00  0.00    -0.263 NA
ATOM     33  C   LIG    1        9.774   0.840   4.166  0.00  0.00    +0.112 A 
ATOM     34  C   LIG    1        8.781   0.124   3.495  0.00  0.00    +0.043 A 
ENDBRANCH  26  29
ENDBRANCH  21  25
ENDBRANCH   5  19
TORSDOF 5
