REMARK  Name = DB15235
REMARK                            x       y       z     vdW  Elec       q    Type
REMARK                         _______ _______ _______ _____ _____    ______ ____
ROOT
ATOM      1  N   LIG    1        3.249   1.695   0.021  0.00  0.00    -0.177 NA
ATOM      2  C   LIG    1        3.485   2.962   0.016  0.00  0.00    +0.132 C 
ENDROOT
BRANCH   2   3
ATOM      3  C   LIG    1        2.436   4.021  -0.001  0.00  0.00    +0.093 A 
ATOM      4  C   LIG    1        2.384   4.996  -1.007  0.00  0.00    +0.030 A 
ATOM      5  C   LIG    1        1.375   5.960  -0.962  0.00  0.00    +0.004 A 
ATOM      6  C   LIG    1        0.446   5.937   0.079  0.00  0.00    +0.020 A 
ATOM      7  C   LIG    1        0.560   4.941   1.049  0.00  0.00    +0.111 A 
ATOM      8  N   LIG    1        1.533   3.995   1.021  0.00  0.00    -0.253 NA
ENDBRANCH   2   3
BRANCH   2   9
ATOM      9  C   LIG    1        4.909   3.383   0.018  0.00  0.00    +0.093 A 
ATOM     10  N   LIG    1        5.176   4.596   0.586  0.00  0.00    -0.253 NA
ATOM     11  C   LIG    1        6.459   5.034   0.628  0.00  0.00    +0.111 A 
ATOM     12  C   LIG    1        7.526   4.296   0.118  0.00  0.00    +0.020 A 
ATOM     13  C   LIG    1        7.258   3.055  -0.459  0.00  0.00    +0.004 A 
ATOM     14  C   LIG    1        5.943   2.589  -0.511  0.00  0.00    +0.030 A 
ENDBRANCH   2   9
BRANCH   1  15
ATOM     15  N   LIG    1        1.953   1.298  -0.079  0.00  0.00    -0.218 N 
ATOM     16  H   LIG    1        1.293   2.060  -0.143  0.00  0.00    +0.176 HD
BRANCH  15  17
ATOM     17  C   LIG    1        1.472   0.013  -0.086  0.00  0.00    +0.153 C 
ATOM     18  S   LIG    1        2.495  -1.325   0.058  0.00  0.00    -0.017 S 
BRANCH  17  20
ATOM     19  C   LIG    1       -0.580  -1.372  -0.506  0.00  0.00    +0.131 C 
ATOM     20  N   LIG    1        0.092  -0.088  -0.217  0.00  0.00    -0.311 N 
BRANCH  20  21
ATOM     21  C   LIG    1       -0.809   1.094  -0.099  0.00  0.00    +0.075 C 
ATOM     22  C   LIG    1       -1.103   1.793  -1.453  0.00  0.00    +0.022 C 
ATOM     23  C   LIG    1       -2.025   3.022  -1.334  0.00  0.00    +0.002 C 
ATOM     24  C   LIG    1       -3.302   2.727  -0.532  0.00  0.00    +0.000 C 
ATOM     25  C   LIG    1       -2.968   2.155   0.855  0.00  0.00    +0.002 C 
ATOM     26  C   LIG    1       -2.086   0.894   0.764  0.00  0.00    +0.022 C 
ENDBRANCH  20  21
ENDBRANCH  17  20
ENDBRANCH  15  17
ENDBRANCH   1  15
TORSDOF 6
