REMARK  Name = DB15358
REMARK                            x       y       z     vdW  Elec       q    Type
REMARK                         _______ _______ _______ _____ _____    ______ ____
ROOT
ATOM      1  C   LIG    1       -2.702   2.086  -1.281  0.00  0.00    +0.035 C 
ATOM      2  C   LIG    1       -1.979   1.574  -0.022  0.00  0.00    +0.126 C 
ATOM      3  C   LIG    1       -2.194   2.479   1.193  0.00  0.00    +0.107 A 
ATOM      4  N   LIG    1       -3.328   2.701   1.826  0.00  0.00    -0.132 NA
ATOM      5  N   LIG    1       -3.079   3.626   2.825  0.00  0.00    -0.058 NA
ATOM      6  N   LIG    1       -1.772   3.953   2.774  0.00  0.00    -0.182 N 
ATOM      7  C   LIG    1       -1.170   3.222   1.767  0.00  0.00    +0.074 A 
ATOM      8  C   LIG    1        0.258   3.273   1.232  0.00  0.00    +0.076 C 
ATOM      9  C   LIG    1        0.266   2.657  -0.198  0.00  0.00    +0.115 C 
ATOM     10  N   LIG    1       -0.512   1.393  -0.186  0.00  0.00    -0.289 N 
ATOM     11  C   LIG    1        0.071   0.184   0.054  0.00  0.00    +0.249 C 
ATOM     12  O   LIG    1       -0.561  -0.851   0.270  0.00  0.00    -0.270 OA
ENDROOT
BRANCH   6  13
ATOM     13  C   LIG    1       -1.208   4.885   3.684  0.00  0.00    +0.253 A 
ATOM     14  N   LIG    1        0.137   4.813   3.895  0.00  0.00    -0.216 NA
ATOM     15  C   LIG    1        0.667   5.713   4.765  0.00  0.00    +0.154 A 
ATOM     16  C   LIG    1       -0.113   6.672   5.413  0.00  0.00    +0.160 A 
ATOM     17  F   LIG    1        0.432   7.558   6.276  0.00  0.00    -0.202 F 
ATOM     18  C   LIG    1       -1.480   6.675   5.132  0.00  0.00    +0.154 A 
ATOM     19  N   LIG    1       -2.046   5.791   4.270  0.00  0.00    -0.216 NA
ENDBRANCH   6  13
BRANCH  11  20
ATOM     20  C   LIG    1        1.576   0.100   0.009  0.00  0.00    +0.056 A 
ATOM     21  C   LIG    1        2.280   0.137   1.216  0.00  0.00    +0.014 A 
ATOM     22  C   LIG    1        3.668   0.058   1.224  0.00  0.00    +0.001 A 
ATOM     23  C   LIG    1        4.365  -0.063   0.027  0.00  0.00    +0.014 A 
ATOM     24  C   LIG    1        3.687  -0.109  -1.199  0.00  0.00    +0.074 A 
ATOM     25  C   LIG    1        2.278  -0.030  -1.207  0.00  0.00    +0.065 A 
ATOM     26 CL   LIG    1        1.413  -0.088  -2.717  0.00  0.00    -0.082 Cl
BRANCH  24  27
ATOM     27  C   LIG    1        4.490  -0.241  -2.501  0.00  0.00    +0.419 C 
ATOM     28  F   LIG    1        4.250   0.807  -3.290  0.00  0.00    -0.166 F 
ATOM     29  F   LIG    1        4.131  -1.352  -3.145  0.00  0.00    -0.166 F 
ATOM     30  F   LIG    1        5.807  -0.299  -2.292  0.00  0.00    -0.166 F 
ENDBRANCH  24  27
ENDBRANCH  11  20
TORSDOF 3
