REMARK  Name = DB15408
REMARK                            x       y       z     vdW  Elec       q    Type
REMARK                         _______ _______ _______ _____ _____    ______ ____
ROOT
ATOM      1  C   LIG    1       -4.293   2.362  -0.360  0.00  0.00    +0.061 A 
ATOM      2  C   LIG    1       -4.953   1.207   0.091  0.00  0.00    +0.016 A 
ATOM      3  C   LIG    1       -4.284   0.005   0.301  0.00  0.00    +0.011 A 
ATOM      4  C   LIG    1       -2.887  -0.095   0.063  0.00  0.00    +0.010 A 
ATOM      5  C   LIG    1       -2.142  -1.291   0.258  0.00  0.00    +0.013 A 
ATOM      6  C   LIG    1       -2.710  -2.514   0.713  0.00  0.00    +0.120 A 
ATOM      7  N   LIG    1       -2.021  -3.660   0.905  0.00  0.00    -0.263 NA
ATOM      8  C   LIG    1       -0.694  -3.640   0.646  0.00  0.00    +0.111 A 
ATOM      9  C   LIG    1       -0.013  -2.510   0.196  0.00  0.00    +0.031 A 
ATOM     10  C   LIG    1       -0.737  -1.297  -0.009  0.00  0.00    +0.026 A 
ATOM     11  C   LIG    1       -0.150  -0.081  -0.467  0.00  0.00    +0.131 A 
ATOM     12  N   LIG    1       -0.863   1.057  -0.645  0.00  0.00    -0.231 NA
ATOM     13  C   LIG    1       -2.197   1.063  -0.394  0.00  0.00    +0.075 A 
ATOM     14  C   LIG    1       -2.909   2.270  -0.598  0.00  0.00    +0.043 A 
ENDROOT
BRANCH   1  15
ATOM     15  C   LIG    1       -5.045   3.660  -0.582  0.00  0.00    +0.337 C 
ATOM     16  O   LIG    1       -6.275   3.697  -0.339  0.00  0.00    -0.245 OA
BRANCH  15  17
ATOM     17  O   LIG    1       -4.415   4.660  -1.003  0.00  0.00    -0.477 OA
ATOM     18  H   LIG    1       -4.769   5.179  -1.698  0.00  0.00    +0.295 HD
ENDBRANCH  15  17
ENDBRANCH   1  15
BRANCH  11  19
ATOM     19  N   LIG    1        1.236  -0.035  -0.724  0.00  0.00    -0.299 N 
ATOM     20  H   LIG    1        1.721  -0.867  -0.421  0.00  0.00    +0.154 HD
BRANCH  19  21
ATOM     21  C   LIG    1        2.096   0.961  -1.220  0.00  0.00    +0.034 A 
ATOM     22  C   LIG    1        3.453   0.864  -0.894  0.00  0.00    +0.023 A 
ATOM     23  C   LIG    1        4.366   1.808  -1.363  0.00  0.00    +0.003 A 
ATOM     24  C   LIG    1        3.932   2.855  -2.174  0.00  0.00    +0.020 A 
ATOM     25  C   LIG    1        2.585   2.954  -2.520  0.00  0.00    +0.043 A 
ATOM     26 CL   LIG    1        2.050   4.240  -3.539  0.00  0.00    -0.083 Cl
ATOM     27  C   LIG    1        1.671   2.010  -2.049  0.00  0.00    +0.043 A 
ENDBRANCH  19  21
ENDBRANCH  11  19
TORSDOF 4
