REMARK  Name = DB15424
REMARK                            x       y       z     vdW  Elec       q    Type
REMARK                         _______ _______ _______ _____ _____    ______ ____
ROOT
ATOM      1  P   LIG    1        1.825  -0.037   0.000  0.00  0.00    -0.016 P 
ENDROOT
BRANCH   1   6
ATOM      2  F   LIG    1       -4.141   0.115   0.000  0.00  0.00    -0.205 F 
ATOM      3  C   LIG    1       -2.789   0.083   0.000  0.00  0.00    +0.123 A 
ATOM      4  C   LIG    1       -2.127  -1.143   0.000  0.00  0.00    +0.039 A 
ATOM      5  C   LIG    1       -0.736  -1.176   0.000  0.00  0.00    +0.012 A 
ATOM      6  C   LIG    1       -0.005   0.018   0.000  0.00  0.00    -0.015 A 
ATOM      7  C   LIG    1       -0.677   1.245   0.000  0.00  0.00    +0.012 A 
ATOM      8  C   LIG    1       -2.069   1.276   0.000  0.00  0.00    +0.039 A 
ENDBRANCH   1   6
BRANCH   1   9
ATOM      9  C   LIG    1        2.445  -0.889   1.498  0.00  0.00    -0.015 A 
ATOM     10  C   LIG    1        1.567  -1.480   2.413  0.00  0.00    +0.009 A 
ATOM     11  C   LIG    1        2.064  -2.114   3.549  0.00  0.00    +0.001 A 
ATOM     12  C   LIG    1        3.437  -2.150   3.775  0.00  0.00    +0.000 A 
ATOM     13  C   LIG    1        4.318  -1.552   2.878  0.00  0.00    +0.001 A 
ATOM     14  C   LIG    1        3.822  -0.919   1.742  0.00  0.00    +0.009 A 
ENDBRANCH   1   9
BRANCH   1  15
ATOM     15  C   LIG    1        2.466   1.669   0.000  0.00  0.00    -0.015 A 
ATOM     16  C   LIG    1        2.703   2.324  -1.212  0.00  0.00    +0.009 A 
ATOM     17  C   LIG    1        3.190   3.627  -1.211  0.00  0.00    +0.001 A 
ATOM     18  C   LIG    1        3.434   4.273   0.000  0.00  0.00    +0.000 A 
ATOM     19  C   LIG    1        3.190   3.627   1.211  0.00  0.00    +0.001 A 
ATOM     20  C   LIG    1        2.703   2.324   1.212  0.00  0.00    +0.009 A 
ENDBRANCH   1  15
BRANCH   1  21
ATOM     21  C   LIG    1        2.445  -0.889  -1.498  0.00  0.00    -0.015 A 
ATOM     22  C   LIG    1        1.567  -1.480  -2.413  0.00  0.00    +0.009 A 
ATOM     23  C   LIG    1        2.064  -2.114  -3.549  0.00  0.00    +0.001 A 
ATOM     24  C   LIG    1        3.437  -2.150  -3.775  0.00  0.00    +0.000 A 
ATOM     25  C   LIG    1        4.318  -1.552  -2.878  0.00  0.00    +0.001 A 
ATOM     26  C   LIG    1        3.822  -0.919  -1.742  0.00  0.00    +0.009 A 
ENDBRANCH   1  21
TORSDOF 4
