REMARK  Name = DB15367
REMARK                            x       y       z     vdW  Elec       q    Type
REMARK                         _______ _______ _______ _____ _____    ______ ____
ROOT
ATOM      1  N   LIG    1        1.408  -0.028   0.193  0.00  0.00    -0.308 N 
ATOM      2  C   LIG    1        2.163   1.143   0.156  0.00  0.00    +0.068 A 
ATOM      3  C   LIG    1        1.822   2.498   0.164  0.00  0.00    +0.028 A 
ATOM      4  C   LIG    1        2.828   3.462   0.078  0.00  0.00    +0.010 A 
ATOM      5  C   LIG    1        4.172   3.084  -0.022  0.00  0.00    -0.022 A 
ATOM      6  C   LIG    1        4.506   1.723   0.014  0.00  0.00    +0.035 A 
ATOM      7  C   LIG    1        3.498   0.765   0.101  0.00  0.00    +0.066 A 
ATOM      8  N   LIG    1        3.537  -0.623   0.140  0.00  0.00    -0.326 N 
ATOM      9  H   LIG    1        4.384  -1.172   0.120  0.00  0.00    +0.169 HD
ATOM     10  C   LIG    1        2.235  -1.196   0.194  0.00  0.00    +0.203 A 
ATOM     11  N   LIG    1        1.862  -2.424   0.220  0.00  0.00    -0.129 NA
ENDROOT
BRANCH   5  12
ATOM     12  C   LIG    1        5.205   4.129  -0.175  0.00  0.00    +0.017 C 
ATOM     13  C   LIG    1        6.253   4.152  -1.044  0.00  0.00    -0.006 C 
ATOM     14  C   LIG    1        7.214   5.302  -1.042  0.00  0.00    +0.025 A 
ATOM     15  C   LIG    1        6.719   6.587  -0.746  0.00  0.00    +0.015 A 
ATOM     16  C   LIG    1        7.544   7.707  -0.731  0.00  0.00    +0.039 A 
ATOM     17  C   LIG    1        8.896   7.571  -1.010  0.00  0.00    +0.127 A 
ATOM     18  F   LIG    1        9.706   8.655  -0.995  0.00  0.00    -0.205 F 
ATOM     19  C   LIG    1        9.415   6.316  -1.305  0.00  0.00    +0.084 A 
ATOM     20  C   LIG    1        8.603   5.177  -1.330  0.00  0.00    +0.131 A 
ATOM     21  O   LIG    1        9.288   4.008  -1.605  0.00  0.00    -0.487 OA
ATOM     22  C   LIG    1        8.734   2.735  -1.315  0.00  0.00    +0.265 C 
ATOM     23  C   LIG    1        7.586   2.405  -2.250  0.00  0.00    -0.003 A 
ATOM     24  C   LIG    1        7.692   1.421  -3.240  0.00  0.00    +0.007 A 
ATOM     25  C   LIG    1        6.618   1.140  -4.082  0.00  0.00    +0.000 A 
ATOM     26  C   LIG    1        5.428   1.848  -3.946  0.00  0.00    +0.001 A 
ATOM     27  C   LIG    1        5.316   2.833  -2.967  0.00  0.00    +0.009 A 
ATOM     28  C   LIG    1        6.388   3.120  -2.107  0.00  0.00    -0.011 A 
ENDBRANCH   5  12
BRANCH  11  29
ATOM     29  C   LIG    1        2.789  -3.448   0.196  0.00  0.00    +0.324 C 
ATOM     30  O   LIG    1        3.741  -3.568   0.970  0.00  0.00    -0.251 OA
ATOM     31  N   LIG    1        2.468  -4.341  -0.741  0.00  0.00    -0.312 N 
ATOM     32  H   LIG    1        3.032  -5.168  -0.867  0.00  0.00    +0.147 HD
ATOM     33  H   LIG    1        1.660  -4.191  -1.326  0.00  0.00    +0.147 HD
ENDBRANCH  11  29
BRANCH   1  35
ATOM     34  C   LIG    1       -0.668  -0.640   1.402  0.00  0.00    +0.032 C 
ATOM     35  C   LIG    1       -0.065  -0.073   0.099  0.00  0.00    +0.101 C 
BRANCH  35  36
ATOM     36  C   LIG    1       -0.592  -0.826  -1.159  0.00  0.00    +0.109 C 
BRANCH  36  37
ATOM     37  N   LIG    1        0.136  -0.523  -2.398  0.00  0.00    -0.296 NA
ATOM     38  C   LIG    1       -0.017   0.869  -2.841  0.00  0.00    +0.112 C 
ATOM     39  C   LIG    1        0.777   1.122  -4.141  0.00  0.00    +0.175 C 
ATOM     40  O   LIG    1        0.379   0.192  -5.143  0.00  0.00    -0.377 OA
ATOM     41  C   LIG    1        0.597  -1.160  -4.751  0.00  0.00    +0.175 C 
ATOM     42  C   LIG    1       -0.194  -1.475  -3.464  0.00  0.00    +0.112 C 
ENDBRANCH  36  37
ENDBRANCH  35  36
ENDBRANCH   1  35
TORSDOF 5
