REMARK  Name = DB15256
REMARK                            x       y       z     vdW  Elec       q    Type
REMARK                         _______ _______ _______ _____ _____    ______ ____
ROOT
ATOM      1  C   LIG    1       -2.716  -0.006   0.009  0.00  0.00    +0.083 A 
ATOM      2  C   LIG    1       -1.967  -1.172  -0.195  0.00  0.00    +0.142 A 
ATOM      3  N   LIG    1       -0.608  -1.168  -0.219  0.00  0.00    -0.221 NA
ATOM      4  C   LIG    1        0.007   0.030  -0.034  0.00  0.00    +0.215 A 
ATOM      5  N   LIG    1       -0.637   1.214   0.172  0.00  0.00    -0.221 NA
ATOM      6  C   LIG    1       -1.994   1.180   0.191  0.00  0.00    +0.142 A 
ENDROOT
BRANCH   1  10
ATOM      7  C   LIG    1       -6.291   0.487   0.529  0.00  0.00    +0.054 A 
ATOM      8  C   LIG    1       -6.272  -0.563  -0.399  0.00  0.00    +0.032 A 
ATOM      9  C   LIG    1       -4.951  -0.848  -0.705  0.00  0.00    +0.092 A 
ATOM     10  N   LIG    1       -4.125  -0.024   0.028  0.00  0.00    -0.320 N 
ATOM     11  C   LIG    1       -4.950   0.776   0.790  0.00  0.00    +0.104 A 
BRANCH   7  15
ATOM     12  N   LIG    1       -7.257   2.185   1.836  0.00  0.00    -0.325 N 
ATOM     13  H   LIG    1       -6.331   2.582   1.900  0.00  0.00    +0.145 HD
ATOM     14  H   LIG    1       -8.029   2.644   2.297  0.00  0.00    +0.145 HD
ATOM     15  C   LIG    1       -7.464   1.061   1.141  0.00  0.00    +0.243 C 
ATOM     16  O   LIG    1       -8.575   0.545   1.033  0.00  0.00    -0.270 OA
ENDBRANCH   7  15
ENDBRANCH   1  10
BRANCH   4  17
ATOM     17  N   LIG    1        1.409  -0.002  -0.064  0.00  0.00    -0.313 N 
ATOM     18  H   LIG    1        1.875  -0.871  -0.282  0.00  0.00    +0.149 HD
BRANCH  17  19
ATOM     19  C   LIG    1        2.212   1.218   0.020  0.00  0.00    +0.117 C 
BRANCH  19  20
ATOM     20  C   LIG    1        3.745   0.968   0.017  0.00  0.00    +0.036 C 
ATOM     21  C   LIG    1        4.226   0.496  -1.385  0.00  0.00    +0.051 C 
ATOM     22  C   LIG    1        5.437   1.415  -1.198  0.00  0.00    +0.168 C 
ATOM     23  F   LIG    1        5.912   2.003  -2.297  0.00  0.00    -0.245 F 
ATOM     24  C   LIG    1        4.525   2.267  -0.308  0.00  0.00    +0.051 C 
BRANCH  20  25
ATOM     25  C   LIG    1        4.111   0.175   1.284  0.00  0.00    +0.084 A 
ATOM     26  C   LIG    1        4.117   0.779   2.550  0.00  0.00    +0.145 A 
ATOM     27  F   LIG    1        3.801   2.085   2.707  0.00  0.00    -0.204 F 
ATOM     28  C   LIG    1        4.450   0.004   3.663  0.00  0.00    +0.042 A 
ATOM     29  C   LIG    1        4.765  -1.346   3.493  0.00  0.00    +0.022 A 
ATOM     30  C   LIG    1        4.735  -1.877   2.203  0.00  0.00    +0.111 A 
ATOM     31  N   LIG    1        4.415  -1.141   1.109  0.00  0.00    -0.256 NA
ENDBRANCH  20  25
ENDBRANCH  19  20
ENDBRANCH  17  19
ENDBRANCH   4  17
TORSDOF 6
