REMARK  Name = DB15031
REMARK                            x       y       z     vdW  Elec       q    Type
REMARK                         _______ _______ _______ _____ _____    ______ ____
ROOT
ATOM      1  C   LIG    1        1.352  -0.030  -0.088  0.00  0.00    +0.250 C 
ATOM      2  N   LIG    1        2.046   0.069   1.083  0.00  0.00    -0.285 N 
ATOM      3  C   LIG    1        3.534   0.151   1.170  0.00  0.00    +0.093 C 
ATOM      4  C   LIG    1        4.026   1.480   0.528  0.00  0.00    +0.040 C 
ATOM      5  C   LIG    1        3.763   0.194   2.698  0.00  0.00    +0.035 C 
ATOM      6  C   LIG    1        2.483   0.757   3.280  0.00  0.00    +0.021 C 
ATOM      7  C   LIG    1        1.400   0.146   2.405  0.00  0.00    +0.109 C 
ATOM      8  O   LIG    1        1.894  -0.153  -1.187  0.00  0.00    -0.270 OA
ENDROOT
BRANCH   3   9
ATOM      9  C   LIG    1        4.289  -1.056   0.584  0.00  0.00    +0.132 A 
ATOM     10  N   LIG    1        3.715  -2.298   0.420  0.00  0.00    -0.340 N 
ATOM     11  H   LIG    1        2.748  -2.494   0.635  0.00  0.00    +0.167 HD
ATOM     12  C   LIG    1        4.678  -3.142  -0.079  0.00  0.00    +0.067 A 
ATOM     13  C   LIG    1        4.676  -4.487  -0.447  0.00  0.00    +0.029 A 
ATOM     14  C   LIG    1        5.884  -5.001  -0.920  0.00  0.00    +0.022 A 
ATOM     15  C   LIG    1        7.039  -4.223  -1.024  0.00  0.00    +0.046 A 
ATOM     16  C   LIG    1        7.044  -2.866  -0.654  0.00  0.00    -0.005 A 
ATOM     17  C   LIG    1        8.320  -2.043  -0.778  0.00  0.00    +0.047 C 
ATOM     18 CL   LIG    1        8.472  -4.986  -1.625  0.00  0.00    -0.083 Cl
ATOM     19  C   LIG    1        5.833  -2.326  -0.173  0.00  0.00    +0.093 A 
ATOM     20  N   LIG    1        5.560  -1.052   0.256  0.00  0.00    -0.230 NA
ENDBRANCH   3   9
BRANCH   1  25
ATOM     21  C   LIG    1       -2.274  -1.179  -0.222  0.00  0.00    +0.121 A 
ATOM     22  C   LIG    1       -2.956  -0.001   0.077  0.00  0.00    +0.048 A 
ATOM     23  C   LIG    1       -2.266   1.187   0.305  0.00  0.00    +0.034 A 
ATOM     24  C   LIG    1       -0.868   1.222   0.240  0.00  0.00    +0.098 A 
ATOM     25  C   LIG    1       -0.157   0.029  -0.036  0.00  0.00    +0.067 A 
ATOM     26  C   LIG    1       -0.871  -1.151  -0.278  0.00  0.00    +0.060 A 
BRANCH  24  27
ATOM     27  N   LIG    1       -0.229   2.468   0.454  0.00  0.00    -0.150 N 
ATOM     28  N   LIG    1        0.637   2.999  -0.427  0.00  0.00    -0.156 NA
ATOM     29  C   LIG    1        0.977   4.125   0.147  0.00  0.00    +0.156 A 
ATOM     30  C   LIG    1        0.297   4.257   1.358  0.00  0.00    +0.156 A 
ATOM     31  N   LIG    1       -0.471   3.213   1.547  0.00  0.00    -0.156 NA
ENDBRANCH  24  27
BRANCH  21  33
ATOM     32  C   LIG    1       -2.403  -3.534  -0.762  0.00  0.00    +0.277 C 
ATOM     33  O   LIG    1       -3.045  -2.305  -0.440  0.00  0.00    -0.495 OA
ENDBRANCH  21  33
ENDBRANCH   1  25
TORSDOF 4
