REMARK  Name = DB15410
REMARK                            x       y       z     vdW  Elec       q    Type
REMARK                         _______ _______ _______ _____ _____    ______ ____
ROOT
ATOM      1  C   LIG    1        3.617  -1.378   0.005  0.00  0.00    +0.131 A 
ATOM      2  C   LIG    1        4.103  -2.685  -0.243  0.00  0.00    +0.059 A 
ATOM      3  C   LIG    1        5.489  -2.875  -0.391  0.00  0.00    +0.015 A 
ATOM      4  C   LIG    1        6.379  -1.811  -0.283  0.00  0.00    +0.001 A 
ATOM      5  C   LIG    1        5.902  -0.531  -0.030  0.00  0.00    +0.004 A 
ATOM      6  C   LIG    1        4.535  -0.317   0.113  0.00  0.00    +0.046 A 
ENDROOT
BRANCH   2   7
ATOM      7  C   LIG    1        3.175  -3.865  -0.396  0.00  0.00    +0.167 C 
ATOM      8  O   LIG    1        1.955  -3.759  -0.539  0.00  0.00    -0.292 OA
BRANCH   7   9
ATOM      9  C   LIG    1        3.791  -5.274  -0.261  0.00  0.00    +0.084 C 
BRANCH   9  10
ATOM     10  C   LIG    1        2.773  -6.425  -0.120  0.00  0.00    +0.043 C 
BRANCH  10  11
ATOM     11  C   LIG    1        3.457  -7.779  -0.016  0.00  0.00    -0.047 A 
ATOM     12  C   LIG    1        3.806  -8.291   1.237  0.00  0.00    +0.003 A 
ATOM     13  C   LIG    1        4.438  -9.530   1.330  0.00  0.00    +0.000 A 
ATOM     14  C   LIG    1        4.718 -10.250   0.170  0.00  0.00    +0.000 A 
ATOM     15  C   LIG    1        4.373  -9.744  -1.081  0.00  0.00    +0.000 A 
ATOM     16  C   LIG    1        3.743  -8.506  -1.175  0.00  0.00    +0.003 A 
ENDBRANCH  10  11
ENDBRANCH   9  10
ENDBRANCH   7   9
ENDBRANCH   2   7
BRANCH   1  17
ATOM     17  O   LIG    1        2.252  -1.188   0.153  0.00  0.00    -0.489 OA
BRANCH  17  18
ATOM     18  C   LIG    1        1.717   0.125   0.309  0.00  0.00    +0.258 C 
BRANCH  18  19
ATOM     19  C   LIG    1        0.174   0.045   0.350  0.00  0.00    +0.135 C 
BRANCH  19  20
ATOM     20  O   LIG    1       -0.206  -0.574   1.564  0.00  0.00    -0.390 OA
ATOM     21  H   LIG    1       -1.159  -0.696   1.566  0.00  0.00    +0.210 HD
ENDBRANCH  19  20
BRANCH  19  22
ATOM     22  C   LIG    1       -0.546   1.411   0.294  0.00  0.00    -0.048 C 
BRANCH  22  23
ATOM     23  N   LIG    1       -0.225   2.136  -1.028  0.00  0.00    +0.381 N 
ATOM     24  H   LIG    1        0.781   2.184  -1.116  0.00  0.00    -0.086 HD
ATOM     25  H   LIG    1       -0.570   1.586  -1.802  0.00  0.00    -0.086 HD
BRANCH  23  26
ATOM     26  C   LIG    1       -0.773   3.568  -1.149  0.00  0.00    -0.083 C 
BRANCH  26  28
ATOM     27  C   LIG    1       -2.864   4.973  -1.554  0.00  0.00    +0.002 C 
ATOM     28  C   LIG    1       -2.305   3.570  -1.284  0.00  0.00    -0.022 C 
ENDBRANCH  26  28
ENDBRANCH  23  26
ENDBRANCH  22  23
ENDBRANCH  19  22
ENDBRANCH  18  19
ENDBRANCH  17  18
ENDBRANCH   1  17
TORSDOF 12
