REMARK  Name = DB15105
REMARK                            x       y       z     vdW  Elec       q    Type
REMARK                         _______ _______ _______ _____ _____    ______ ____
ROOT
ATOM      1  C   LIG    1       -2.009  -0.840   0.133  0.00  0.00    +0.111 A 
ATOM      2  S   LIG    1       -2.400   0.845   0.397  0.00  0.00    -0.076 S 
ATOM      3  C   LIG    1       -0.708   1.224   0.355  0.00  0.00    +0.090 A 
ATOM      4  C   LIG    1        0.019   0.059   0.151  0.00  0.00    +0.133 A 
ATOM      5  N   LIG    1       -0.713  -1.040   0.042  0.00  0.00    -0.227 NA
ENDROOT
BRANCH   1  10
ATOM      6  C   LIG    1       -4.346  -6.172   0.408  0.00  0.00    +0.038 C 
ATOM      7  C   LIG    1       -3.405  -4.965   0.294  0.00  0.00    +0.116 C 
ATOM      8  O   LIG    1       -3.747  -4.008   1.293  0.00  0.00    -0.374 OA
ATOM      9  C   LIG    1       -2.891  -2.868   1.331  0.00  0.00    +0.197 C 
ATOM     10  C   LIG    1       -3.016  -2.009   0.039  0.00  0.00    +0.139 C 
ATOM     11  N   LIG    1       -4.400  -1.489   0.013  0.00  0.00    -0.248 NA
ATOM     12  C   LIG    1       -4.997  -1.340  -1.101  0.00  0.00    +0.148 C 
ATOM     13  S   LIG    1       -4.262  -1.147  -2.727  0.00  0.00    -0.091 S 
ATOM     14  C   LIG    1       -2.853  -2.294  -2.569  0.00  0.00    +0.083 C 
ATOM     15  C   LIG    1       -2.698  -2.972  -1.183  0.00  0.00    +0.038 C 
ATOM     16  C   LIG    1       -3.465  -4.318  -1.106  0.00  0.00    +0.038 C 
BRANCH  12  17
ATOM     17  N   LIG    1       -6.282  -0.860  -1.086  0.00  0.00    -0.338 N 
ATOM     18  H   LIG    1       -6.852  -0.896  -1.918  0.00  0.00    +0.144 HD
ATOM     19  H   LIG    1       -6.707  -0.574  -0.216  0.00  0.00    +0.144 HD
ENDBRANCH  12  17
ENDBRANCH   1  10
BRANCH   4  20
ATOM     20  N   LIG    1        1.409   0.072   0.079  0.00  0.00    -0.265 N 
ATOM     21  H   LIG    1        1.841   0.974   0.219  0.00  0.00    +0.157 HD
ATOM     22  C   LIG    1        2.240  -0.967  -0.189  0.00  0.00    +0.268 C 
ATOM     23  O   LIG    1        1.856  -2.116  -0.426  0.00  0.00    -0.268 OA
BRANCH  22  24
ATOM     24  C   LIG    1        3.724  -0.653  -0.193  0.00  0.00    +0.126 A 
ATOM     25  C   LIG    1        4.662  -1.660  -0.466  0.00  0.00    +0.036 A 
ATOM     26  C   LIG    1        6.022  -1.348  -0.457  0.00  0.00    +0.049 A 
ATOM     27  C   LIG    1        6.440  -0.037  -0.173  0.00  0.00    +0.145 A 
ATOM     28  C   LIG    1        5.447   0.910   0.082  0.00  0.00    +0.157 A 
ATOM     29  N   LIG    1        4.120   0.625   0.077  0.00  0.00    -0.247 NA
BRANCH  27  30
ATOM     30  O   LIG    1        7.753   0.388  -0.137  0.00  0.00    -0.433 OA
BRANCH  30  31
ATOM     31  C   LIG    1        8.801  -0.572  -0.236  0.00  0.00    +0.541 C 
ATOM     32  F   LIG    1        8.966  -0.972  -1.498  0.00  0.00    -0.166 F 
ATOM     33  F   LIG    1        9.933  -0.016   0.190  0.00  0.00    -0.166 F 
ENDBRANCH  30  31
ENDBRANCH  27  30
ENDBRANCH  22  24
ENDBRANCH   4  20
TORSDOF 6
