REMARK  Name = DB15637
REMARK                            x       y       z     vdW  Elec       q    Type
REMARK                         _______ _______ _______ _____ _____    ______ ____
ROOT
ATOM      1  F   LIG    1       -4.237   0.552   0.281  0.00  0.00    -0.205 F 
ATOM      2  C   LIG    1       -2.892   0.403   0.213  0.00  0.00    +0.135 A 
ATOM      3  C   LIG    1       -2.310  -0.867   0.087  0.00  0.00    +0.072 A 
ATOM      4  C   LIG    1       -0.915  -0.976   0.002  0.00  0.00    +0.020 A 
ATOM      5  C   LIG    1       -0.103   0.163   0.052  0.00  0.00    -0.041 A 
ATOM      6  C   LIG    1       -0.699   1.422   0.174  0.00  0.00    +0.007 A 
ATOM      7  C   LIG    1       -2.085   1.540   0.258  0.00  0.00    +0.039 A 
ENDROOT
BRANCH   3   8
ATOM      8  C   LIG    1       -3.174  -2.100   0.002  0.00  0.00    +0.250 C 
ATOM      9  N   LIG    1       -3.158  -2.832  -1.148  0.00  0.00    -0.288 N 
ATOM     10  C   LIG    1       -4.011  -4.037  -1.280  0.00  0.00    +0.184 C 
ATOM     11  C   LIG    1       -4.972  -3.849  -2.448  0.00  0.00    +0.146 A 
ATOM     12  N   LIG    1       -6.040  -4.544  -2.741  0.00  0.00    -0.206 NA
ATOM     13  C   LIG    1       -6.497  -3.938  -3.831  0.00  0.00    +0.255 A 
ATOM     14  N   LIG    1       -5.802  -2.898  -4.254  0.00  0.00    -0.145 NA
ATOM     15  N   LIG    1       -4.794  -2.861  -3.381  0.00  0.00    -0.246 N 
ATOM     16  C   LIG    1       -3.778  -1.813  -3.313  0.00  0.00    +0.164 C 
ATOM     17  C   LIG    1       -2.606  -2.320  -2.425  0.00  0.00    +0.132 C 
ATOM     18  O   LIG    1       -3.861  -2.393   0.982  0.00  0.00    -0.270 OA
BRANCH  13  19
ATOM     19  C   LIG    1       -7.767  -4.407  -4.524  0.00  0.00    +0.454 C 
ATOM     20  F   LIG    1       -7.682  -5.694  -4.859  0.00  0.00    -0.163 F 
ATOM     21  F   LIG    1       -8.015  -3.720  -5.641  0.00  0.00    -0.163 F 
ATOM     22  F   LIG    1       -8.824  -4.265  -3.725  0.00  0.00    -0.163 F 
ENDBRANCH  13  19
ENDBRANCH   3   8
BRANCH   5  23
ATOM     23  C   LIG    1        1.415   0.033  -0.060  0.00  0.00    +0.093 C 
BRANCH  23  24
ATOM     24  C   LIG    1        2.074  -0.694   1.117  0.00  0.00    +0.074 A 
ATOM     25  C   LIG    1        2.260  -0.028   2.426  0.00  0.00    +0.011 A 
ATOM     26  C   LIG    1        1.936   1.313   2.674  0.00  0.00    +0.010 A 
ATOM     27  C   LIG    1        2.146   1.868   3.936  0.00  0.00    +0.001 A 
ATOM     28  C   LIG    1        2.686   1.094   4.962  0.00  0.00    +0.001 A 
ATOM     29  C   LIG    1        3.024  -0.239   4.731  0.00  0.00    +0.014 A 
ATOM     30  C   LIG    1        2.820  -0.804   3.467  0.00  0.00    +0.050 A 
ATOM     31  C   LIG    1        3.221  -2.254   3.234  0.00  0.00    +0.272 A 
ATOM     32  O   LIG    1        3.715  -3.015   4.065  0.00  0.00    -0.266 OA
ATOM     33  N   LIG    1        2.970  -2.641   1.951  0.00  0.00    -0.242 N 
ATOM     34  H   LIG    1        3.212  -3.590   1.705  0.00  0.00    +0.192 HD
ATOM     35  N   LIG    1        2.421  -1.913   0.910  0.00  0.00    -0.175 NA
ENDBRANCH  23  24
ENDBRANCH   5  23
TORSDOF 4
