REMARK  Name = DB15146
REMARK                            x       y       z     vdW  Elec       q    Type
REMARK                         _______ _______ _______ _____ _____    ______ ____
ROOT
ATOM      1  C   LIG    1        1.570  -0.411  -0.076  0.00  0.00    +0.176 C 
ATOM      2  C   LIG    1        2.189  -1.831  -0.266  0.00  0.00    +0.155 C 
ATOM      3  C   LIG    1        2.156  -2.619   1.063  0.00  0.00    +0.070 C 
ATOM      4  C   LIG    1        2.676  -1.787   2.258  0.00  0.00    +0.173 C 
ATOM      5  C   LIG    1        1.921  -0.452   2.283  0.00  0.00    +0.280 C 
ATOM      6  O   LIG    1        2.369   0.302   3.369  0.00  0.00    -0.340 OA
ATOM      7  C   LIG    1        1.643   1.511   3.632  0.00  0.00    +0.183 C 
ATOM      8  C   LIG    1        0.580   1.284   4.733  0.00  0.00    +0.179 C 
ATOM      9  C   LIG    1        0.028   2.620   5.279  0.00  0.00    +0.205 C 
ATOM     10  C   LIG    1        1.187   3.548   5.673  0.00  0.00    +0.282 C 
ATOM     11  O   LIG    1        1.880   2.938   6.724  0.00  0.00    -0.340 OA
ATOM     12  C   LIG    1        2.644   3.731   7.635  0.00  0.00    +0.183 C 
ATOM     13  C   LIG    1        3.274   2.727   8.626  0.00  0.00    +0.179 C 
ATOM     14  C   LIG    1        4.479   1.982   7.994  0.00  0.00    +0.201 C 
ATOM     15  C   LIG    1        5.461   2.988   7.359  0.00  0.00    +0.282 C 
ATOM     16  O   LIG    1        6.449   2.247   6.699  0.00  0.00    -0.340 OA
ATOM     17  C   LIG    1        7.729   2.858   6.503  0.00  0.00    +0.183 C 
ATOM     18  C   LIG    1        8.789   1.832   6.958  0.00  0.00    +0.179 C 
ATOM     19  C   LIG    1       10.218   2.295   6.594  0.00  0.00    +0.201 C 
ATOM     20  C   LIG    1       10.309   2.717   5.118  0.00  0.00    +0.282 C 
ATOM     21  O   LIG    1       10.143   1.590   4.305  0.00  0.00    -0.340 OA
ATOM     22  C   LIG    1       10.984   1.418   3.158  0.00  0.00    +0.183 C 
ATOM     23  C   LIG    1       10.744  -0.040   2.707  0.00  0.00    +0.179 C 
ATOM     24  C   LIG    1       11.434  -0.350   1.363  0.00  0.00    +0.201 C 
ATOM     25  C   LIG    1       11.085   0.700   0.301  0.00  0.00    +0.282 C 
ATOM     26  O   LIG    1        9.743   0.553  -0.092  0.00  0.00    -0.340 OA
ATOM     27  C   LIG    1        9.260   1.369  -1.171  0.00  0.00    +0.183 C 
ATOM     28  C   LIG    1        9.633   0.811  -2.573  0.00  0.00    +0.179 C 
ATOM     29  C   LIG    1        8.851   1.542  -3.691  0.00  0.00    +0.201 C 
ATOM     30  C   LIG    1        7.346   1.571  -3.400  0.00  0.00    +0.282 C 
ATOM     31  O   LIG    1        6.854   0.260  -3.453  0.00  0.00    -0.340 OA
ATOM     32  C   LIG    1        5.523   0.056  -3.931  0.00  0.00    +0.183 C 
ATOM     33  C   LIG    1        5.303  -1.472  -3.992  0.00  0.00    +0.179 C 
ATOM     34  C   LIG    1        4.967  -2.059  -2.599  0.00  0.00    +0.201 C 
ATOM     35  C   LIG    1        3.802  -1.270  -1.980  0.00  0.00    +0.282 C 
ATOM     36  O   LIG    1        4.173   0.082  -1.852  0.00  0.00    -0.341 OA
ATOM     37  C   LIG    1        4.411   0.763  -3.093  0.00  0.00    +0.178 C 
ATOM     38  O   LIG    1        7.120   2.158  -2.143  0.00  0.00    -0.341 OA
ATOM     39  C   LIG    1        7.712   1.450  -1.042  0.00  0.00    +0.178 C 
ATOM     40  O   LIG    1       11.377   1.988   0.769  0.00  0.00    -0.341 OA
ATOM     41  C   LIG    1       10.701   2.389   1.969  0.00  0.00    +0.178 C 
ATOM     42  O   LIG    1        9.332   3.686   4.841  0.00  0.00    -0.341 OA
ATOM     43  C   LIG    1        7.981   3.237   5.018  0.00  0.00    +0.178 C 
ATOM     44  O   LIG    1        4.784   3.806   6.437  0.00  0.00    -0.341 OA
ATOM     45  C   LIG    1        3.738   4.622   6.976  0.00  0.00    +0.178 C 
ATOM     46  O   LIG    1        1.997   3.775   4.545  0.00  0.00    -0.341 OA
ATOM     47  C   LIG    1        2.660   2.605   4.044  0.00  0.00    +0.178 C 
ATOM     48  O   LIG    1        3.546  -1.813  -0.719  0.00  0.00    -0.343 OA
ATOM     49  O   LIG    1        2.151   0.228   1.072  0.00  0.00    -0.341 OA
ENDROOT
BRANCH   4  50
ATOM     50  O   LIG    1        4.082  -1.622   2.219  0.00  0.00    -0.387 OA
ATOM     51  H   LIG    1        4.357  -1.192   3.032  0.00  0.00    +0.210 HD
ENDBRANCH   4  50
BRANCH   8  52
ATOM     52  O   LIG    1       -0.491   0.489   4.257  0.00  0.00    -0.386 OA
ATOM     53  H   LIG    1       -0.938   0.968   3.555  0.00  0.00    +0.210 HD
ENDBRANCH   8  52
BRANCH  13  54
ATOM     54  O   LIG    1        3.606   3.326   9.866  0.00  0.00    -0.386 OA
ATOM     55  H   LIG    1        2.924   3.964  10.090  0.00  0.00    +0.210 HD
ENDBRANCH  13  54
BRANCH  14  56
ATOM     56  O   LIG    1        4.052   0.981   7.084  0.00  0.00    -0.384 OA
ATOM     57  H   LIG    1        4.823   0.482   6.802  0.00  0.00    +0.210 HD
ENDBRANCH  14  56
BRANCH  18  58
ATOM     58  O   LIG    1        8.678   1.586   8.350  0.00  0.00    -0.386 OA
ATOM     59  H   LIG    1        9.485   1.157   8.644  0.00  0.00    +0.210 HD
ENDBRANCH  18  58
BRANCH  19  60
ATOM     60  O   LIG    1       11.205   1.332   6.918  0.00  0.00    -0.384 OA
ATOM     61  H   LIG    1       12.070   1.734   6.810  0.00  0.00    +0.210 HD
ENDBRANCH  19  60
BRANCH  23  62
ATOM     62  O   LIG    1       11.162  -0.955   3.708  0.00  0.00    -0.386 OA
ATOM     63  H   LIG    1       12.107  -0.852   3.842  0.00  0.00    +0.210 HD
ENDBRANCH  23  62
BRANCH  24  64
ATOM     64  O   LIG    1       11.178  -1.662   0.892  0.00  0.00    -0.384 OA
ATOM     65  H   LIG    1       10.245  -1.851   1.015  0.00  0.00    +0.210 HD
ENDBRANCH  24  64
BRANCH  28  66
ATOM     66  O   LIG    1       11.017   0.908  -2.858  0.00  0.00    -0.386 OA
ATOM     67  H   LIG    1       11.508   0.670  -2.069  0.00  0.00    +0.210 HD
ENDBRANCH  28  66
BRANCH  29  68
ATOM     68  O   LIG    1        9.110   1.020  -4.984  0.00  0.00    -0.384 OA
ATOM     69  H   LIG    1       10.041   0.791  -5.033  0.00  0.00    +0.210 HD
ENDBRANCH  29  68
BRANCH  33  70
ATOM     70  O   LIG    1        4.340  -1.826  -4.969  0.00  0.00    -0.386 OA
ATOM     71  H   LIG    1        4.787  -2.286  -5.684  0.00  0.00    +0.210 HD
ENDBRANCH  33  70
BRANCH  34  72
ATOM     72  O   LIG    1        6.107  -2.097  -1.757  0.00  0.00    -0.384 OA
ATOM     73  H   LIG    1        5.859  -2.525  -0.934  0.00  0.00    +0.210 HD
ENDBRANCH  34  72
BRANCH   1  74
ATOM     74  C   LIG    1        0.022  -0.401  -0.051  0.00  0.00    +0.194 C 
BRANCH  74  75
ATOM     75  O   LIG    1       -0.411   0.880   0.394  0.00  0.00    -0.375 OA
BRANCH  75  76
ATOM     76  C   LIG    1       -1.779   0.942   0.775  0.00  0.00    +0.190 C 
BRANCH  76  78
ATOM     77  C   LIG    1       -3.459   2.405   2.040  0.00  0.00    +0.040 C 
ATOM     78  C   LIG    1       -2.073   2.326   1.382  0.00  0.00    +0.137 C 
BRANCH  78  79
ATOM     79  O   LIG    1       -2.002   3.309   0.368  0.00  0.00    -0.390 OA
ATOM     80  H   LIG    1       -1.146   3.239  -0.062  0.00  0.00    +0.210 HD
ENDBRANCH  78  79
ENDBRANCH  76  78
ENDBRANCH  75  76
ENDBRANCH  74  75
ENDBRANCH   1  74
BRANCH   9  81
ATOM     81  O   LIG    1       -0.833   2.355   6.391  0.00  0.00    -0.366 OA
BRANCH  81  82
ATOM     82  C   LIG    1       -1.763   3.373   6.757  0.00  0.00    +0.191 C 
BRANCH  82  83
ATOM     83  C   LIG    1       -2.962   3.487   5.787  0.00  0.00    +0.137 C 
ATOM     84  C   LIG    1       -3.922   4.624   6.172  0.00  0.00    +0.040 C 
BRANCH  83  85
ATOM     85  O   LIG    1       -3.690   2.275   5.792  0.00  0.00    -0.390 OA
ATOM     86  H   LIG    1       -3.969   2.090   6.692  0.00  0.00    +0.210 HD
ENDBRANCH  83  85
ENDBRANCH  82  83
ENDBRANCH  81  82
ENDBRANCH   9  81
BRANCH  37  87
ATOM     87  C   LIG    1        3.110   1.056  -3.876  0.00  0.00    +0.194 C 
BRANCH  87  88
ATOM     88  O   LIG    1        3.411   1.907  -4.973  0.00  0.00    -0.375 OA
BRANCH  88  89
ATOM     89  C   LIG    1        2.287   2.240  -5.778  0.00  0.00    +0.190 C 
BRANCH  89  90
ATOM     90  C   LIG    1        2.727   3.112  -6.969  0.00  0.00    +0.137 C 
ATOM     91  C   LIG    1        3.775   2.436  -7.870  0.00  0.00    +0.040 C 
BRANCH  90  92
ATOM     92  O   LIG    1        3.227   4.352  -6.506  0.00  0.00    -0.390 OA
ATOM     93  H   LIG    1        2.574   4.746  -5.924  0.00  0.00    +0.210 HD
ENDBRANCH  90  92
ENDBRANCH  89  90
ENDBRANCH  88  89
ENDBRANCH  87  88
ENDBRANCH  37  87
BRANCH  43  94
ATOM     94  C   LIG    1        7.053   4.320   4.434  0.00  0.00    +0.190 C 
BRANCH  94  95
ATOM     95  O   LIG    1        7.043   5.500   5.214  0.00  0.00    -0.392 OA
ATOM     96  H   LIG    1        6.600   5.308   6.044  0.00  0.00    +0.210 HD
ENDBRANCH  94  95
ENDBRANCH  43  94
BRANCH  39  97
ATOM     97  C   LIG    1        7.200   2.094   0.263  0.00  0.00    +0.190 C 
BRANCH  97  98
ATOM     98  O   LIG    1        7.634   3.432   0.410  0.00  0.00    -0.392 OA
ATOM     99  H   LIG    1        7.229   3.797   1.200  0.00  0.00    +0.210 HD
ENDBRANCH  97  98
ENDBRANCH  39  97
BRANCH  45 100
ATOM    100  C   LIG    1        4.278   5.779   7.856  0.00  0.00    +0.190 C 
BRANCH 100 101
ATOM    101  O   LIG    1        3.262   6.722   8.135  0.00  0.00    -0.392 OA
ATOM    102  H   LIG    1        3.055   7.198   7.328  0.00  0.00    +0.210 HD
ENDBRANCH 100 101
ENDBRANCH  45 100
BRANCH  47 103
ATOM    103  C   LIG    1        3.572   3.049   2.880  0.00  0.00    +0.190 C 
BRANCH 103 104
ATOM    104  O   LIG    1        4.562   2.080   2.598  0.00  0.00    -0.392 OA
ATOM    105  H   LIG    1        4.130   1.302   2.235  0.00  0.00    +0.210 HD
ENDBRANCH 103 104
ENDBRANCH  47 103
BRANCH  41 106
ATOM    106  C   LIG    1       11.088   3.873   2.187  0.00  0.00    +0.194 C 
BRANCH 106 107
ATOM    107  O   LIG    1       12.330   4.076   2.856  0.00  0.00    -0.375 OA
BRANCH 107 108
ATOM    108  C   LIG    1       13.507   3.738   2.130  0.00  0.00    +0.190 C 
BRANCH 108 109
ATOM    109  C   LIG    1       14.753   4.007   2.996  0.00  0.00    +0.137 C 
ATOM    110  C   LIG    1       14.759   3.222   4.318  0.00  0.00    +0.040 C 
BRANCH 109 111
ATOM    111  O   LIG    1       14.871   5.391   3.262  0.00  0.00    -0.390 OA
ATOM    112  H   LIG    1       14.846   5.866   2.429  0.00  0.00    +0.210 HD
ENDBRANCH 109 111
ENDBRANCH 108 109
ENDBRANCH 107 108
ENDBRANCH 106 107
ENDBRANCH  41 106
TORSDOF 39
