REMARK  Name = DB15300
REMARK                            x       y       z     vdW  Elec       q    Type
REMARK                         _______ _______ _______ _____ _____    ______ ____
ROOT
ATOM      1  C   LIG    1        0.063   0.402  -0.320  0.00  0.00    +0.132 C 
ENDROOT
BRANCH   1   2
ATOM      2  C   LIG    1       -0.559  -0.349  -1.512  0.00  0.00    -0.010 A 
ATOM      3  C   LIG    1       -1.662  -1.264  -1.365  0.00  0.00    +0.009 A 
ATOM      4  C   LIG    1       -2.326  -1.558  -0.136  0.00  0.00    +0.056 A 
ATOM      5  C   LIG    1       -3.390  -2.471  -0.080  0.00  0.00    +0.121 A 
ATOM      6  C   LIG    1       -3.810  -3.100  -1.247  0.00  0.00    +0.048 A 
ATOM      7  C   LIG    1       -3.201  -2.840  -2.468  0.00  0.00    +0.032 A 
ATOM      8  C   LIG    1       -2.128  -1.923  -2.548  0.00  0.00    +0.072 A 
ATOM      9  N   LIG    1       -1.578  -1.705  -3.774  0.00  0.00    -0.255 NA
ATOM     10  C   LIG    1       -0.555  -0.828  -3.874  0.00  0.00    +0.112 A 
ATOM     11  C   LIG    1       -0.026  -0.143  -2.789  0.00  0.00    +0.026 A 
BRANCH   5  12
ATOM     12  O   LIG    1       -4.074  -2.803   1.074  0.00  0.00    -0.495 OA
ATOM     13  C   LIG    1       -3.704  -2.193   2.307  0.00  0.00    +0.277 C 
ENDBRANCH   5  12
ENDBRANCH   1   2
BRANCH   1  14
ATOM     14  C   LIG    1        1.559   0.035  -0.067  0.00  0.00    -0.035 C 
ATOM     15  C   LIG    1        2.228   0.712   1.176  0.00  0.00    -0.009 C 
ATOM     16  C   LIG    1        2.936  -0.314   2.103  0.00  0.00    -0.013 C 
ATOM     17  C   LIG    1        1.871  -1.345   2.593  0.00  0.00    -0.025 C 
ATOM     18  C   LIG    1        1.164  -2.048   1.386  0.00  0.00    -0.075 C 
ATOM     19  C   LIG    1        3.953  -1.098   1.228  0.00  0.00    -0.015 C 
ATOM     20  C   LIG    1        3.262  -1.823   0.032  0.00  0.00    -0.078 C 
ATOM     21  N   LIG    1        1.740  -1.511   0.047  0.00  0.00    +0.384 N 
ATOM     22  H   LIG    1        1.290  -1.968  -0.734  0.00  0.00    -0.081 HD
BRANCH  17  23
ATOM     23  C   LIG    1        0.864  -0.740   3.603  0.00  0.00    -0.002 C 
ATOM     24  C   LIG    1        0.045  -1.792   4.367  0.00  0.00    +0.004 C 
ENDBRANCH  17  23
ENDBRANCH   1  14
BRANCH   1  25
ATOM     25  O   LIG    1       -0.019   1.803  -0.506  0.00  0.00    -0.389 OA
ATOM     26  H   LIG    1       -0.945   2.052  -0.548  0.00  0.00    +0.210 HD
ENDBRANCH   1  25
TORSDOF 5
