REMARK  Name = DB15039
REMARK                            x       y       z     vdW  Elec       q    Type
REMARK                         _______ _______ _______ _____ _____    ______ ____
ROOT
ATOM      1  C   LIG    1       -6.266  -0.847   0.130  0.00  0.00    +0.135 C 
ATOM      2  N   LIG    1       -4.869  -0.349   0.120  0.00  0.00    -0.269 N 
ATOM      3  C   LIG    1       -3.809  -1.407   0.252  0.00  0.00    +0.232 C 
ATOM      4  O   LIG    1       -4.150  -2.587   0.345  0.00  0.00    -0.275 OA
ATOM      5  C   LIG    1       -2.484  -0.819   0.246  0.00  0.00    +0.142 C 
ATOM      6  C   LIG    1       -1.217  -1.386   0.339  0.00  0.00    +0.155 C 
ATOM      7  N   LIG    1       -0.336  -0.324   0.266  0.00  0.00    -0.210 NA
ATOM      8  N   LIG    1       -0.954   0.860   0.122  0.00  0.00    -0.228 NA
ATOM      9  H   LIG    1       -0.729   1.481   0.899  0.00  0.00    +0.143 HD
ATOM     10  C   LIG    1       -2.232   0.564   0.119  0.00  0.00    +0.142 C 
ATOM     11  N   LIG    1       -3.277   1.440  -0.003  0.00  0.00    -0.238 NA
ATOM     12  C   LIG    1       -3.196   2.894  -0.161  0.00  0.00    +0.079 C 
ATOM     13  C   LIG    1       -2.574   3.431  -1.465  0.00  0.00    +0.020 C 
ATOM     14  C   LIG    1       -3.466   4.613  -1.848  0.00  0.00    +0.003 C 
ATOM     15  C   LIG    1       -4.873   4.160  -1.448  0.00  0.00    +0.020 C 
ATOM     16  C   LIG    1       -4.666   3.316  -0.176  0.00  0.00    +0.074 C 
ATOM     17  N   LIG    1       -5.367   2.036  -0.113  0.00  0.00    -0.275 NA
ATOM     18  H   LIG    1       -6.375   1.971  -0.141  0.00  0.00    +0.126 HD
ATOM     19  C   LIG    1       -4.554   0.981   0.006  0.00  0.00    +0.199 C 
ENDROOT
BRANCH   6  20
ATOM     20  N   LIG    1       -0.793  -2.690   0.439  0.00  0.00    -0.321 N 
ATOM     21  H   LIG    1       -0.399  -3.038   1.301  0.00  0.00    +0.148 HD
BRANCH  20  22
ATOM     22  C   LIG    1       -0.655  -3.574  -0.644  0.00  0.00    +0.029 A 
ATOM     23  C   LIG    1       -1.005  -3.217  -1.954  0.00  0.00    +0.023 A 
ATOM     24  C   LIG    1       -0.804  -4.114  -3.000  0.00  0.00    +0.002 A 
ATOM     25  C   LIG    1       -0.260  -5.369  -2.738  0.00  0.00    +0.000 A 
ATOM     26  C   LIG    1        0.081  -5.736  -1.439  0.00  0.00    +0.002 A 
ATOM     27  C   LIG    1       -0.117  -4.839  -0.393  0.00  0.00    +0.023 A 
ENDBRANCH  20  22
ENDBRANCH   6  20
BRANCH   7  28
ATOM     28  C   LIG    1        1.128  -0.364   0.238  0.00  0.00    +0.139 C 
BRANCH  28  29
ATOM     29  C   LIG    1        1.678  -0.930  -1.066  0.00  0.00    -0.032 A 
ATOM     30  C   LIG    1        2.396  -2.126  -1.059  0.00  0.00    +0.005 A 
ATOM     31  C   LIG    1        2.831  -2.683  -2.257  0.00  0.00    +0.010 A 
ATOM     32  C   LIG    1        2.570  -2.054  -3.484  0.00  0.00    +0.000 A 
ATOM     33  C   LIG    1        1.871  -0.838  -3.470  0.00  0.00    +0.010 A 
ATOM     34  C   LIG    1        1.428  -0.280  -2.275  0.00  0.00    +0.005 A 
BRANCH  32  35
ATOM     35  C   LIG    1        3.012  -2.666  -4.778  0.00  0.00    +0.074 A 
ATOM     36  C   LIG    1        3.296  -1.896  -5.916  0.00  0.00    +0.028 A 
ATOM     37  C   LIG    1        3.709  -2.535  -7.086  0.00  0.00    +0.006 A 
ATOM     38  C   LIG    1        3.834  -3.923  -7.103  0.00  0.00    +0.059 A 
ATOM     39  C   LIG    1        3.543  -4.637  -5.940  0.00  0.00    +0.214 A 
ATOM     40  F   LIG    1        3.664  -5.984  -5.950  0.00  0.00    -0.184 F 
ATOM     41  N   LIG    1        3.143  -4.024  -4.797  0.00  0.00    -0.219 NA
ENDBRANCH  32  35
ENDBRANCH  28  29
ENDBRANCH   7  28
TORSDOF 5
