REMARK  Name = DB15024
REMARK                            x       y       z     vdW  Elec       q    Type
REMARK                         _______ _______ _______ _____ _____    ______ ____
ROOT
ATOM      1  C   LIG    1       -3.883   2.439   1.936  0.00  0.00    +0.065 C 
ATOM      2  C   LIG    1       -4.185   2.401   0.413  0.00  0.00    +0.181 C 
ATOM      3  C   LIG    1       -5.071   1.128   0.142  0.00  0.00    +0.268 C 
ATOM      4  O   LIG    1       -6.299   1.175   0.012  0.00  0.00    -0.271 OA
ATOM      5  N   LIG    1       -4.311  -0.010   0.028  0.00  0.00    -0.234 N 
ATOM      6  C   LIG    1       -2.892  -0.026   0.008  0.00  0.00    +0.083 A 
ATOM      7  C   LIG    1       -2.122  -1.185   0.199  0.00  0.00    +0.029 A 
ATOM      8  C   LIG    1       -0.728  -1.119   0.167  0.00  0.00    +0.026 A 
ATOM      9  C   LIG    1       -0.073   0.097  -0.050  0.00  0.00    +0.051 A 
ATOM     10  C   LIG    1       -0.834   1.260  -0.232  0.00  0.00    +0.072 A 
ATOM     11  C   LIG    1       -2.224   1.186  -0.187  0.00  0.00    +0.145 A 
ATOM     12  O   LIG    1       -2.957   2.342  -0.351  0.00  0.00    -0.475 OA
ATOM     13  C   LIG    1       -4.932   3.646  -0.116  0.00  0.00    +0.065 C 
ENDROOT
BRANCH   5  14
ATOM     14  C   LIG    1       -4.985  -1.216  -0.261  0.00  0.00    +0.042 A 
ATOM     15  C   LIG    1       -5.134  -1.629  -1.589  0.00  0.00    +0.026 A 
ATOM     16  C   LIG    1       -5.786  -2.828  -1.868  0.00  0.00    +0.040 A 
ATOM     17  C   LIG    1       -6.281  -3.606  -0.823  0.00  0.00    +0.124 A 
ATOM     18  F   LIG    1       -6.912  -4.770  -1.096  0.00  0.00    -0.205 F 
ATOM     19  C   LIG    1       -6.131  -3.198   0.501  0.00  0.00    +0.040 A 
ATOM     20  C   LIG    1       -5.481  -2.000   0.787  0.00  0.00    +0.026 A 
ENDBRANCH   5  14
BRANCH   9  21
ATOM     21  N   LIG    1        1.329   0.099  -0.072  0.00  0.00    -0.221 N 
ATOM     22  H   LIG    1        1.802  -0.781   0.069  0.00  0.00    +0.173 HD
BRANCH  21  23
ATOM     23  S   LIG    1        2.312   1.576  -0.054  0.00  0.00    +0.040 S 
ATOM     24  O   LIG    1        1.984   2.290   1.185  0.00  0.00    -0.155 OA
ATOM     25  O   LIG    1        2.129   2.226  -1.356  0.00  0.00    -0.155 OA
ATOM     26  C   LIG    1        4.064   0.891   0.064  0.00  0.00    +0.218 C 
ENDBRANCH  21  23
ENDBRANCH   9  21
TORSDOF 3
