REMARK  Name = DB15132
REMARK                            x       y       z     vdW  Elec       q    Type
REMARK                         _______ _______ _______ _____ _____    ______ ____
ROOT
ATOM      1  C   LIG    1        1.563  -0.190  -0.070  0.00  0.00    +0.281 C 
ATOM      2  N   LIG    1        2.275   0.811  -0.660  0.00  0.00    -0.178 N 
ATOM      3  C   LIG    1        3.743   0.832  -0.814  0.00  0.00    +0.192 C 
ATOM      4  C   LIG    1        3.949   1.922  -1.864  0.00  0.00    +0.083 C 
ATOM      5  C   LIG    1        2.560   2.462  -2.017  0.00  0.00    +0.106 C 
ATOM      6  N   LIG    1        1.686   1.824  -1.356  0.00  0.00    -0.189 NA
ATOM      7  O   LIG    1        2.125  -1.182   0.403  0.00  0.00    -0.269 OA
ENDROOT
BRANCH   3   8
ATOM      8  C   LIG    1        4.498   1.166   0.499  0.00  0.00    +0.236 C 
ATOM      9  N   LIG    1        5.828   0.963   0.476  0.00  0.00    -0.310 N 
ATOM     10  H   LIG    1        6.244   0.637  -0.384  0.00  0.00    +0.149 HD
ATOM     11  O   LIG    1        3.897   1.583   1.490  0.00  0.00    -0.274 OA
BRANCH   9  12
ATOM     12  C   LIG    1        6.760   1.261   1.564  0.00  0.00    +0.141 C 
BRANCH  12  13
ATOM     13  C   LIG    1        7.080   2.752   1.711  0.00  0.00    -0.003 A 
ATOM     14  C   LIG    1        8.022   3.302   0.832  0.00  0.00    +0.027 A 
ATOM     15  C   LIG    1        8.356   4.654   0.891  0.00  0.00    +0.041 A 
ATOM     16 CL   LIG    1        9.509   5.309  -0.214  0.00  0.00    -0.084 Cl
ATOM     17  C   LIG    1        7.755   5.478   1.841  0.00  0.00    +0.022 A 
ATOM     18  C   LIG    1        6.830   4.946   2.737  0.00  0.00    +0.029 A 
ATOM     19  C   LIG    1        6.498   3.586   2.692  0.00  0.00    +0.074 A 
BRANCH  19  20
ATOM     20  N   LIG    1        5.577   3.117   3.647  0.00  0.00    -0.200 N 
ATOM     21  N   LIG    1        5.903   2.194   4.561  0.00  0.00    -0.039 NA
ATOM     22  N   LIG    1        4.767   2.039   5.334  0.00  0.00    -0.023 NA
ATOM     23  N   LIG    1        3.764   2.898   4.893  0.00  0.00    -0.116 NA
ATOM     24  C   LIG    1        4.291   3.543   3.884  0.00  0.00    +0.250 A 
ENDBRANCH  19  20
ENDBRANCH  12  13
ENDBRANCH   9  12
ENDBRANCH   3   8
BRANCH   1  25
ATOM     25  C   LIG    1        0.011  -0.107  -0.038  0.00  0.00    +0.294 C 
BRANCH  25  26
ATOM     26  C   LIG    1       -0.602  -0.500  -1.392  0.00  0.00    +0.002 A 
ATOM     27  C   LIG    1       -0.371  -1.766  -1.946  0.00  0.00    +0.010 A 
ATOM     28  C   LIG    1       -0.941  -2.109  -3.168  0.00  0.00    +0.039 A 
ATOM     29  C   LIG    1       -1.746  -1.190  -3.837  0.00  0.00    +0.123 A 
ATOM     30  F   LIG    1       -2.300  -1.524  -5.025  0.00  0.00    -0.205 F 
ATOM     31  C   LIG    1       -1.989   0.068  -3.291  0.00  0.00    +0.039 A 
ATOM     32  C   LIG    1       -1.419   0.412  -2.068  0.00  0.00    +0.010 A 
ENDBRANCH  25  26
BRANCH  25  33
ATOM     33  O   LIG    1       -0.482  -0.966   1.002  0.00  0.00    -0.447 OA
BRANCH  33  34
ATOM     34  C   LIG    1       -1.751  -0.881   1.478  0.00  0.00    +0.308 C 
ATOM     35  O   LIG    1       -2.610  -0.079   1.102  0.00  0.00    -0.251 OA
BRANCH  34  37
ATOM     36  C   LIG    1       -3.451  -1.911   3.129  0.00  0.00    +0.015 C 
ATOM     37  C   LIG    1       -2.017  -1.922   2.572  0.00  0.00    +0.117 C 
ENDBRANCH  34  37
ENDBRANCH  33  34
ENDBRANCH  25  33
ENDBRANCH   1  25
TORSDOF 9
