REMARK  Name = DB15187
REMARK                            x       y       z     vdW  Elec       q    Type
REMARK                         _______ _______ _______ _____ _____    ______ ____
ROOT
ATOM      1  C   LIG    1        1.569   0.467  -0.123  0.00  0.00    +0.147 A 
ATOM      2  C   LIG    1        2.417   1.502  -0.556  0.00  0.00    +0.099 A 
ATOM      3 CL   LIG    1        1.851   2.933  -1.349  0.00  0.00    -0.078 Cl
ATOM      4  C   LIG    1        3.788   1.318  -0.360  0.00  0.00    +0.137 A 
ATOM      5  N   LIG    1        4.302   0.190   0.194  0.00  0.00    -0.221 NA
ATOM      6  C   LIG    1        3.418  -0.776   0.549  0.00  0.00    +0.221 A 
ATOM      7  N   LIG    1        2.070  -0.687   0.389  0.00  0.00    -0.198 NA
ENDROOT
BRANCH   1   8
ATOM      8  N   LIG    1        0.180   0.487  -0.311  0.00  0.00    -0.297 N 
ATOM      9  H   LIG    1       -0.218  -0.405  -0.568  0.00  0.00    +0.154 HD
BRANCH   8  11
ATOM     10  C   LIG    1       -2.119   1.303  -0.291  0.00  0.00    +0.127 A 
ATOM     11  C   LIG    1       -0.779   1.419   0.126  0.00  0.00    +0.059 A 
ATOM     12  C   LIG    1       -0.425   2.460   0.998  0.00  0.00    +0.025 A 
ATOM     13  C   LIG    1       -1.377   3.380   1.433  0.00  0.00    +0.002 A 
ATOM     14  C   LIG    1       -2.697   3.269   1.006  0.00  0.00    +0.002 A 
ATOM     15  C   LIG    1       -3.067   2.234   0.149  0.00  0.00    +0.030 A 
BRANCH  10  16
ATOM     16  S   LIG    1       -2.649  -0.011  -1.406  0.00  0.00    +0.062 S 
ATOM     17  O   LIG    1       -2.186  -1.274  -0.820  0.00  0.00    -0.153 OA
ATOM     18  O   LIG    1       -4.075   0.181  -1.700  0.00  0.00    -0.153 OA
BRANCH  16  20
ATOM     19  C   LIG    1       -1.534  -0.916  -3.766  0.00  0.00    +0.131 C 
ATOM     20  N   LIG    1       -1.748   0.265  -2.906  0.00  0.00    -0.183 NA
ATOM     21  C   LIG    1       -2.050   1.522  -3.621  0.00  0.00    +0.131 C 
ENDBRANCH  16  20
ENDBRANCH  10  16
ENDBRANCH   8  11
ENDBRANCH   1   8
BRANCH   6  22
ATOM     22  N   LIG    1        3.984  -1.948   1.077  0.00  0.00    -0.284 N 
ATOM     23  H   LIG    1        4.994  -1.951   1.056  0.00  0.00    +0.155 HD
BRANCH  22  24
ATOM     24  C   LIG    1        3.420  -3.097   1.658  0.00  0.00    +0.034 A 
ATOM     25  C   LIG    1        2.154  -3.105   2.257  0.00  0.00    +0.023 A 
ATOM     26  C   LIG    1        1.652  -4.276   2.819  0.00  0.00    +0.003 A 
ATOM     27  C   LIG    1        2.419  -5.442   2.804  0.00  0.00    -0.064 A 
ATOM     28  C   LIG    1        3.684  -5.437   2.215  0.00  0.00    +0.003 A 
ATOM     29  C   LIG    1        4.184  -4.266   1.651  0.00  0.00    +0.023 A 
BRANCH  27  30
ATOM     30  C   LIG    1        1.864  -6.727   3.401  0.00  0.00    -0.043 C 
BRANCH  30  31
ATOM     31  N   LIG    1        2.318  -6.997   4.855  0.00  0.00    +0.384 N 
ATOM     32  H   LIG    1        3.327  -6.957   4.896  0.00  0.00    -0.081 HD
ATOM     33  C   LIG    1        1.754  -5.945   5.840  0.00  0.00    -0.063 C 
ATOM     34  C   LIG    1        2.225  -6.291   7.274  0.00  0.00    +0.065 C 
ATOM     35  N   LIG    1        1.827  -7.640   7.694  0.00  0.00    -0.309 NA
ATOM     36  C   LIG    1        0.397  -7.776   7.964  0.00  0.00    +0.104 C 
ATOM     37  C   LIG    1        2.351  -8.645   6.760  0.00  0.00    +0.065 C 
ATOM     38  C   LIG    1        1.880  -8.412   5.304  0.00  0.00    -0.063 C 
ENDBRANCH  30  31
ENDBRANCH  27  30
ENDBRANCH  22  24
ENDBRANCH   6  22
TORSDOF 8
