REMARK  Name = DB15273
REMARK                            x       y       z     vdW  Elec       q    Type
REMARK                         _______ _______ _______ _____ _____    ______ ____
ROOT
ATOM      1  C   LIG    1       -1.987  -1.483   0.503  0.00  0.00    +0.048 A 
ATOM      2  C   LIG    1       -2.747  -0.313   0.298  0.00  0.00    +0.094 A 
ATOM      3  C   LIG    1       -2.119   0.920   0.521  0.00  0.00    +0.127 A 
ATOM      4  N   LIG    1       -0.827   1.042   0.908  0.00  0.00    -0.240 NA
ATOM      5  C   LIG    1       -0.093  -0.085   1.083  0.00  0.00    +0.125 A 
ATOM      6  C   LIG    1       -0.641  -1.354   0.878  0.00  0.00    +0.067 A 
ENDROOT
BRANCH   2   7
ATOM      7  C   LIG    1       -4.216  -0.358  -0.145  0.00  0.00    +0.421 C 
ATOM      8  F   LIG    1       -4.937  -1.052   0.736  0.00  0.00    -0.166 F 
ATOM      9  F   LIG    1       -4.310  -0.946  -1.338  0.00  0.00    -0.166 F 
ATOM     10  F   LIG    1       -4.757   0.858  -0.245  0.00  0.00    -0.166 F 
ENDBRANCH   2   7
BRANCH   1  11
ATOM     11  N   LIG    1       -2.568  -2.745   0.275  0.00  0.00    -0.313 N 
ATOM     12  H   LIG    1       -3.303  -2.720  -0.419  0.00  0.00    +0.152 HD
BRANCH  11  14
ATOM     13  C   LIG    1       -2.661  -5.188  -0.074  0.00  0.00    +0.058 A 
ATOM     14  C   LIG    1       -2.227  -4.056   0.668  0.00  0.00    +0.044 A 
ATOM     15  C   LIG    1       -1.470  -4.253   1.834  0.00  0.00    +0.024 A 
ATOM     16  C   LIG    1       -1.109  -5.529   2.253  0.00  0.00    +0.002 A 
ATOM     17  C   LIG    1       -1.508  -6.637   1.519  0.00  0.00    +0.001 A 
ATOM     18  C   LIG    1       -2.280  -6.468   0.373  0.00  0.00    +0.015 A 
BRANCH  13  22
ATOM     19  C   LIG    1       -4.080  -6.119  -3.515  0.00  0.00    +0.128 C 
ATOM     20  N   LIG    1       -3.366  -6.035  -2.245  0.00  0.00    -0.314 N 
ATOM     21  H   LIG    1       -2.692  -6.765  -2.064  0.00  0.00    +0.149 HD
ATOM     22  C   LIG    1       -3.530  -5.071  -1.319  0.00  0.00    +0.246 C 
ATOM     23  O   LIG    1       -4.320  -4.136  -1.464  0.00  0.00    -0.270 OA
ENDBRANCH  13  22
ENDBRANCH  11  14
ENDBRANCH   1  11
BRANCH   5  24
ATOM     24  N   LIG    1        1.261  -0.012   1.452  0.00  0.00    -0.297 N 
ATOM     25  H   LIG    1        1.718  -0.912   1.445  0.00  0.00    +0.154 HD
BRANCH  24  26
ATOM     26  C   LIG    1        2.134   1.032   1.827  0.00  0.00    +0.075 A 
ATOM     27  C   LIG    1        1.689   2.332   2.102  0.00  0.00    +0.029 A 
ATOM     28  C   LIG    1        2.585   3.327   2.479  0.00  0.00    +0.025 A 
ATOM     29  C   LIG    1        3.953   3.064   2.598  0.00  0.00    +0.033 A 
ATOM     30  C   LIG    1        4.394   1.759   2.332  0.00  0.00    +0.070 A 
ATOM     31  C   LIG    1        3.504   0.738   1.950  0.00  0.00    +0.143 A 
BRANCH  29  32
ATOM     32  N   LIG    1        4.826   4.081   2.987  0.00  0.00    -0.325 N 
ATOM     33  C   LIG    1        6.203   3.789   3.428  0.00  0.00    +0.133 C 
ATOM     34  C   LIG    1        6.865   4.971   4.167  0.00  0.00    +0.178 C 
ATOM     35  O   LIG    1        6.830   6.133   3.351  0.00  0.00    -0.377 OA
ATOM     36  C   LIG    1        5.500   6.508   3.025  0.00  0.00    +0.178 C 
ATOM     37  C   LIG    1        4.800   5.364   2.260  0.00  0.00    +0.133 C 
ENDBRANCH  29  32
BRANCH  31  38
ATOM     38  O   LIG    1        3.912  -0.561   1.683  0.00  0.00    -0.493 OA
ATOM     39  C   LIG    1        5.288  -0.909   1.792  0.00  0.00    +0.277 C 
ENDBRANCH  31  38
ENDBRANCH  24  26
ENDBRANCH   5  24
TORSDOF 8
