REMARK  Name = DB15203
REMARK                            x       y       z     vdW  Elec       q    Type
REMARK                         _______ _______ _______ _____ _____    ______ ____
ROOT
ATOM      1  C   LIG    1        3.742  -1.432   0.011  0.00  0.00    +0.226 C 
ATOM      2  O   LIG    1        4.248  -0.755  -1.152  0.00  0.00    -0.480 OA
ATOM      3  C   LIG    1        4.204  -1.502  -2.314  0.00  0.00    +0.163 A 
ATOM      4  C   LIG    1        4.325  -0.829  -3.529  0.00  0.00    +0.051 A 
ATOM      5  C   LIG    1        4.324  -1.554  -4.723  0.00  0.00    +0.024 A 
ATOM      6  C   LIG    1        4.206  -2.947  -4.701  0.00  0.00    +0.045 A 
ATOM      7  C   LIG    1        4.093  -3.624  -3.485  0.00  0.00    +0.069 A 
ATOM      8 CL   LIG    1        4.199  -3.833  -6.182  0.00  0.00    -0.083 Cl
ATOM      9  C   LIG    1        4.103  -2.904  -2.291  0.00  0.00    +0.163 A 
ATOM     10  O   LIG    1        3.940  -3.604  -1.111  0.00  0.00    -0.485 OA
ATOM     11  C   LIG    1        4.336  -2.866   0.050  0.00  0.00    +0.275 C 
ENDROOT
BRANCH   1  12
ATOM     12  C   LIG    1        2.197  -1.436   0.041  0.00  0.00    +0.155 C 
BRANCH  12  13
ATOM     13  N   LIG    1        1.650  -0.071  -0.069  0.00  0.00    -0.176 NA
ATOM     14  H   LIG    1        2.056   0.428  -0.866  0.00  0.00    +0.149 HD
BRANCH  13  15
ATOM     15  S   LIG    1       -0.100   0.069  -0.021  0.00  0.00    +0.092 S 
ATOM     16  O   LIG    1       -0.619  -0.435  -1.297  0.00  0.00    -0.142 OA
ATOM     17  O   LIG    1       -0.561  -0.491   1.254  0.00  0.00    -0.142 OA
BRANCH  15  18
ATOM     18  N   LIG    1       -0.350   1.802   0.018  0.00  0.00    -0.193 NA
ATOM     19  H   LIG    1       -0.074   2.273   0.883  0.00  0.00    +0.145 HD
ATOM     20  H   LIG    1       -0.126   2.306  -0.845  0.00  0.00    +0.145 HD
ENDBRANCH  15  18
ENDBRANCH  13  15
ENDBRANCH  12  13
ENDBRANCH   1  12
TORSDOF 4
