REMARK  Name = DB15480
REMARK                            x       y       z     vdW  Elec       q    Type
REMARK                         _______ _______ _______ _____ _____    ______ ____
ROOT
ATOM      1  C   LIG    1       -0.068  -0.001   0.099  0.00  0.00    +0.135 A 
ATOM      2  C   LIG    1       -0.774  -1.206   0.030  0.00  0.00    +0.046 A 
ATOM      3  C   LIG    1       -2.166  -1.200  -0.065  0.00  0.00    +0.007 A 
ATOM      4  C   LIG    1       -2.857   0.011  -0.102  0.00  0.00    +0.045 A 
ATOM      5  C   LIG    1       -2.157   1.217  -0.046  0.00  0.00    +0.120 A 
ATOM      6  C   LIG    1       -0.764   1.212   0.049  0.00  0.00    +0.091 A 
ENDROOT
BRANCH   5   7
ATOM      7  O   LIG    1       -2.837   2.406  -0.088  0.00  0.00    -0.507 OA
ATOM      8  H   LIG    1       -2.259   3.170  -0.040  0.00  0.00    +0.292 HD
ENDBRANCH   5   7
BRANCH   1   9
ATOM      9  O   LIG    1        1.307  -0.008   0.168  0.00  0.00    -0.426 OA
BRANCH   9  10
ATOM     10  C   LIG    1        1.912   0.001   1.387  0.00  0.00    +0.309 C 
ATOM     11  O   LIG    1        1.357   0.010   2.488  0.00  0.00    -0.251 OA
ATOM     12  C   LIG    1        3.433  -0.002   1.280  0.00  0.00    +0.136 C 
ENDBRANCH   9  10
ENDBRANCH   1   9
TORSDOF 3
