REMARK  Name = DB15623
REMARK                            x       y       z     vdW  Elec       q    Type
REMARK                         _______ _______ _______ _____ _____    ______ ____
ROOT
ATOM      1  N   LIG    1       -0.265  -0.062   0.053  0.00  0.00    -0.174 NA
ENDROOT
BRANCH   1   2
ATOM      2  S   LIG    1       -0.711   1.660   0.044  0.00  0.00    +0.061 S 
ATOM      3  O   LIG    1       -2.175   1.759   0.004  0.00  0.00    -0.153 OA
ATOM      4  O   LIG    1        0.102   2.349  -0.965  0.00  0.00    -0.153 OA
BRANCH   2   5
ATOM      5  C   LIG    1       -0.180   2.271   1.645  0.00  0.00    +0.107 A 
ATOM      6  C   LIG    1       -1.031   2.151   2.747  0.00  0.00    +0.030 A 
ATOM      7  C   LIG    1       -0.649   2.596   4.014  0.00  0.00    +0.031 A 
ATOM      8  C   LIG    1        0.623   3.168   4.165  0.00  0.00    +0.080 A 
ATOM      9  N   LIG    1        1.129   3.646   5.334  0.00  0.00    -0.225 NA
ATOM     10  C   LIG    1        2.337   4.113   5.173  0.00  0.00    +0.159 A 
ATOM     11  S   LIG    1        2.997   4.021   3.557  0.00  0.00    -0.052 S 
ATOM     12  C   LIG    1        1.487   3.281   3.045  0.00  0.00    +0.043 A 
ATOM     13  C   LIG    1        1.093   2.835   1.777  0.00  0.00    +0.045 A 
BRANCH  10  14
ATOM     14  N   LIG    1        3.115   4.664   6.159  0.00  0.00    -0.321 N 
ATOM     15  H   LIG    1        3.993   5.099   5.913  0.00  0.00    +0.148 HD
BRANCH  14  16
ATOM     16  C   LIG    1        2.714   4.940   7.534  0.00  0.00    +0.069 C 
ATOM     17  C   LIG    1        3.982   5.120   8.390  0.00  0.00    +0.003 C 
ATOM     18  C   LIG    1        3.636   5.488   9.843  0.00  0.00    -0.077 C 
ATOM     19  N   LIG    1        2.766   6.769   9.851  0.00  0.00    +0.382 N 
ATOM     20  H   LIG    1        3.312   7.498   9.412  0.00  0.00    -0.081 HD
ATOM     21  C   LIG    1        1.473   6.604   9.015  0.00  0.00    -0.077 C 
ATOM     22  C   LIG    1        1.842   6.213   7.573  0.00  0.00    +0.003 C 
BRANCH  19  23
ATOM     23  C   LIG    1        2.448   7.228  11.297  0.00  0.00    -0.069 C 
ATOM     24  C   LIG    1        3.619   7.435  12.270  0.00  0.00    -0.015 C 
ATOM     25  C   LIG    1        3.027   8.183  13.472  0.00  0.00    -0.002 C 
ATOM     26  C   LIG    1        1.751   8.874  12.967  0.00  0.00    -0.002 C 
ATOM     27  C   LIG    1        1.612   8.503  11.485  0.00  0.00    -0.015 C 
ENDBRANCH  19  23
ENDBRANCH  14  16
ENDBRANCH  10  14
ENDBRANCH   2   5
ENDBRANCH   1   2
BRANCH   1  28
ATOM     28  C   LIG    1       -1.078  -0.940   0.944  0.00  0.00    +0.112 C 
BRANCH  28  30
ATOM     29  C   LIG    1       -0.194  -3.345   0.491  0.00  0.00    +0.008 C 
ATOM     30  C   LIG    1       -1.374  -2.359   0.393  0.00  0.00    -0.001 C 
ATOM     31  C   LIG    1       -1.999  -2.341  -1.015  0.00  0.00    +0.008 C 
ENDBRANCH  28  30
ENDBRANCH   1  28
BRANCH   1  32
ATOM     32  C   LIG    1        1.188  -0.355  -0.081  0.00  0.00    +0.142 C 
BRANCH  32  33
ATOM     33  C   LIG    1        1.651  -0.676  -1.527  0.00  0.00    +0.151 C 
BRANCH  33  34
ATOM     34  O   LIG    1        1.020   0.113  -2.521  0.00  0.00    -0.389 OA
ATOM     35  H   LIG    1        1.161   1.040  -2.311  0.00  0.00    +0.210 HD
ENDBRANCH  33  34
BRANCH  33  36
ATOM     36  C   LIG    1        3.200  -0.608  -1.668  0.00  0.00    +0.110 C 
BRANCH  36  37
ATOM     37  N   LIG    1        3.697  -1.368  -2.822  0.00  0.00    -0.275 N 
ATOM     38  H   LIG    1        3.982  -0.855  -3.643  0.00  0.00    +0.152 HD
ATOM     39  C   LIG    1        3.770  -2.753  -2.852  0.00  0.00    +0.401 C 
ATOM     40  O   LIG    1        3.442  -3.521  -1.944  0.00  0.00    -0.226 OA
BRANCH  39  41
ATOM     41  O   LIG    1        4.273  -3.136  -4.046  0.00  0.00    -0.444 OA
BRANCH  41  42
ATOM     42  C   LIG    1        4.502  -4.511  -4.359  0.00  0.00    +0.212 C 
ATOM     43  C   LIG    1        3.222  -5.269  -4.720  0.00  0.00    +0.208 C 
ATOM     44  O   LIG    1        3.649  -6.179  -5.729  0.00  0.00    -0.347 OA
ATOM     45  C   LIG    1        4.990  -5.992  -6.087  0.00  0.00    +0.257 C 
ATOM     46  O   LIG    1        5.204  -5.991  -7.468  0.00  0.00    -0.351 OA
ATOM     47  C   LIG    1        5.303  -4.676  -8.005  0.00  0.00    +0.163 C 
ATOM     48  C   LIG    1        4.995  -3.777  -6.817  0.00  0.00    +0.040 C 
ATOM     49  C   LIG    1        5.381  -4.611  -5.598  0.00  0.00    +0.090 C 
ENDBRANCH  41  42
ENDBRANCH  39  41
ENDBRANCH  36  37
BRANCH  36  50
ATOM     50  C   LIG    1        3.760   0.840  -1.684  0.00  0.00    +0.060 C 
BRANCH  50  51
ATOM     51  C   LIG    1        5.268   0.910  -1.478  0.00  0.00    -0.046 A 
ATOM     52  C   LIG    1        6.125   0.961  -2.581  0.00  0.00    +0.004 A 
ATOM     53  C   LIG    1        7.503   1.012  -2.388  0.00  0.00    +0.000 A 
ATOM     54  C   LIG    1        8.019   1.015  -1.093  0.00  0.00    +0.000 A 
ATOM     55  C   LIG    1        7.170   0.967   0.010  0.00  0.00    +0.000 A 
ATOM     56  C   LIG    1        5.792   0.914  -0.182  0.00  0.00    +0.004 A 
ENDBRANCH  50  51
ENDBRANCH  36  50
ENDBRANCH  33  36
ENDBRANCH  32  33
ENDBRANCH   1  32
TORSDOF 16
