REMARK  Name = DB15447
REMARK                            x       y       z     vdW  Elec       q    Type
REMARK                         _______ _______ _______ _____ _____    ______ ____
ROOT
ATOM      1  C   LIG    1        2.054  -1.466   0.021  0.00  0.00    -0.047 A 
ATOM      2  C   LIG    1        2.321  -2.123   1.226  0.00  0.00    +0.003 A 
ATOM      3  C   LIG    1        2.793  -3.435   1.220  0.00  0.00    +0.001 A 
ATOM      4  C   LIG    1        3.001  -4.097   0.010  0.00  0.00    +0.004 A 
ATOM      5  C   LIG    1        2.736  -3.451  -1.203  0.00  0.00    -0.037 A 
ATOM      6  C   LIG    1        2.265  -2.133  -1.190  0.00  0.00    +0.007 A 
ENDROOT
BRANCH   1   7
ATOM      7  C   LIG    1        1.528  -0.039   0.026  0.00  0.00    +0.035 C 
BRANCH   7   8
ATOM      8  C   LIG    1       -0.010   0.024   0.013  0.00  0.00    +0.005 C 
BRANCH   8   9
ATOM      9  C   LIG    1       -0.551   1.465   0.014  0.00  0.00    +0.000 C 
BRANCH   9  11
ATOM     10  C   LIG    1       -2.628   2.965  -0.001  0.00  0.00    +0.004 C 
ATOM     11  C   LIG    1       -2.089   1.528   0.003  0.00  0.00    -0.003 C 
ENDBRANCH   9  11
ENDBRANCH   8   9
ENDBRANCH   7   8
ENDBRANCH   1   7
BRANCH   5  12
ATOM     12  C   LIG    1        2.973  -4.172  -2.528  0.00  0.00    +0.155 C 
BRANCH  12  13
ATOM     13  C   LIG    1        1.693  -4.888  -2.999  0.00  0.00    +0.309 C 
ATOM     14  O   LIG    1        0.910  -4.249  -3.738  0.00  0.00    -0.251 OA
BRANCH  13  15
ATOM     15  O   LIG    1        1.520  -6.071  -2.626  0.00  0.00    -0.480 OA
ATOM     16  H   LIG    1        0.753  -6.539  -2.893  0.00  0.00    +0.295 HD
ENDBRANCH  13  15
ENDBRANCH  12  13
ENDBRANCH   5  12
TORSDOF 7
