REMARK  Name = DB15340
REMARK                            x       y       z     vdW  Elec       q    Type
REMARK                         _______ _______ _______ _____ _____    ______ ____
ROOT
ATOM      1  C   UNK A  1        0.063  -0.306  -0.389  0.00  0.00    +0.163 C 
ENDROOT
BRANCH   1   4
ATOM      2  N   UNK A  1       -1.343   1.531  -1.169  0.00  0.00    -0.302 N 
ATOM      3  H   UNK A  1       -1.962   0.799  -1.486  0.00  0.00    +0.150 HD
ATOM      4  C   UNK A  1       -0.190   1.204  -0.566  0.00  0.00    +0.234 C 
ATOM      5  O   UNK A  1        0.624   2.020  -0.131  0.00  0.00    -0.274 OA
BRANCH   2   6
ATOM      6  C   UNK A  1       -1.828   2.896  -1.361  0.00  0.00    +0.163 C 
BRANCH   6   9
ATOM      7  N   UNK A  1       -3.936   4.083  -1.080  0.00  0.00    -0.315 N 
ATOM      8  H   UNK A  1       -3.341   4.846  -0.789  0.00  0.00    +0.149 HD
ATOM      9  C   UNK A  1       -3.364   2.910  -1.393  0.00  0.00    +0.234 C 
ATOM     10  O   UNK A  1       -3.990   1.895  -1.702  0.00  0.00    -0.274 OA
BRANCH   7  11
ATOM     11  C   UNK A  1       -5.380   4.315  -1.001  0.00  0.00    +0.097 C 
BRANCH  11  12
ATOM     12  C   UNK A  1       -6.132   4.244  -2.361  0.00  0.00    +0.030 C 
BRANCH  12  13
ATOM     13  N   UNK A  1       -5.791   5.346  -3.325  0.00  0.00    +0.387 N 
ATOM     14  H   UNK A  1       -6.203   6.207  -2.996  0.00  0.00    -0.089 HD
ATOM     15  H   UNK A  1       -4.787   5.443  -3.372  0.00  0.00    -0.089 HD
ATOM     16  H   UNK A  1       -6.159   5.114  -4.238  0.00  0.00    -0.089 HD
ENDBRANCH  12  13
BRANCH  12  17
ATOM     17  C   UNK A  1       -7.668   4.330  -2.226  0.00  0.00    +0.201 C 
ATOM     18  N   ASP A  2       -8.388   3.725  -3.190  0.00  0.00    -0.305 N 
ATOM     19  H   ASP A  2       -7.912   3.234  -3.932  0.00  0.00    +0.149 HD
ATOM     20  O   UNK A  1       -8.166   4.934  -1.273  0.00  0.00    -0.278 OA
BRANCH  18  21
ATOM     21  CA  ASP A  2       -9.851   3.746  -3.292  0.00  0.00    +0.169 C 
BRANCH  21  22
ATOM     22  C   ASP A  2      -10.500   2.827  -2.244  0.00  0.00    +0.235 C 
ATOM     23  N   CYS A  3      -11.641   3.281  -1.696  0.00  0.00    -0.300 N 
ATOM     24  H   CYS A  3      -11.994   4.183  -1.979  0.00  0.00    +0.150 HD
ATOM     25  O   ASP A  2       -9.977   1.746  -1.970  0.00  0.00    -0.274 OA
BRANCH  23  26
ATOM     26  CA  CYS A  3      -12.448   2.579  -0.680  0.00  0.00    +0.191 C 
BRANCH  26  27
ATOM     27  C   CYS A  3      -13.274   1.385  -1.295  0.00  0.00    +0.326 C 
ATOM     28  OXT CYS A  3      -13.350   0.377  -0.555  0.00  0.00    -0.249 OA
BRANCH  27  29
ATOM     29  O   CYS A  3      -13.826   1.597  -2.402  0.00  0.00    -0.479 OA
ATOM     30  H   CYS A  3      -14.329   0.920  -2.812  0.00  0.00    +0.295 HD
ENDBRANCH  27  29
ENDBRANCH  26  27
BRANCH  26  31
ATOM     31  CB  CYS A  3      -13.385   3.553   0.080  0.00  0.00    +0.099 C 
BRANCH  31  32
ATOM     32  SG  CYS A  3      -12.453   4.865   0.929  0.00  0.00    -0.176 S 
ATOM     33  HG  CYS A  3      -13.518   5.464   1.469  0.00  0.00    +0.102 HD
ENDBRANCH  31  32
ENDBRANCH  26  31
ENDBRANCH  23  26
ENDBRANCH  21  22
BRANCH  21  34
ATOM     34  CB  ASP A  2      -10.354   3.370  -4.712  0.00  0.00    +0.152 C 
BRANCH  34  35
ATOM     35  CG  ASP A  2       -9.719   4.128  -5.898  0.00  0.00    +0.307 C 
ATOM     36  OD2 ASP A  2       -9.900   3.632  -7.032  0.00  0.00    -0.251 OA
BRANCH  35  37
ATOM     37  OD1 ASP A  2       -9.176   5.238  -5.694  0.00  0.00    -0.481 OA
ATOM     38  HD1 ASP A  2       -8.787   5.708  -6.406  0.00  0.00    +0.295 HD
ENDBRANCH  35  37
ENDBRANCH  34  35
ENDBRANCH  21  34
ENDBRANCH  18  21
ENDBRANCH  12  17
ENDBRANCH  11  12
ENDBRANCH   7  11
ENDBRANCH   6   9
BRANCH   6  39
ATOM     39  C   UNK A  1       -1.181   3.523  -2.621  0.00  0.00    +0.067 C 
BRANCH  39  40
ATOM     40  C   UNK A  1       -1.471   2.834  -3.947  0.00  0.00    -0.045 A 
ATOM     41  C   UNK A  1       -2.632   3.152  -4.684  0.00  0.00    +0.004 A 
ATOM     42  C   UNK A  1       -2.935   2.448  -5.842  0.00  0.00    +0.000 A 
ATOM     43  C   UNK A  1       -2.111   1.414  -6.268  0.00  0.00    +0.000 A 
ATOM     44  C   UNK A  1       -0.983   1.067  -5.535  0.00  0.00    +0.000 A 
ATOM     45  C   UNK A  1       -0.664   1.758  -4.375  0.00  0.00    +0.004 A 
ENDBRANCH  39  40
ENDBRANCH   6  39
ENDBRANCH   2   6
ENDBRANCH   1   4
BRANCH   1  46
ATOM     46  N   UNK A  1        1.488  -0.626  -0.472  0.00  0.00    -0.304 N 
ATOM     47  H   UNK A  1        1.969  -0.722   0.410  0.00  0.00    +0.149 HD
ATOM     48  C   UNK A  1        2.198  -0.639  -1.614  0.00  0.00    +0.214 C 
ATOM     49  O   UNK A  1        1.683  -0.545  -2.729  0.00  0.00    -0.276 OA
BRANCH  48  50
ATOM     50  C   UNK A  1        3.723  -0.755  -1.478  0.00  0.00    +0.096 C 
BRANCH  50  51
ATOM     51  C   UNK A  1        4.495   0.357  -2.227  0.00  0.00    +0.009 C 
BRANCH  51  52
ATOM     52  C   UNK A  1        4.169   1.793  -1.761  0.00  0.00    +0.000 C 
BRANCH  52  53
ATOM     53  C   UNK A  1        4.949   2.872  -2.532  0.00  0.00    +0.000 C 
BRANCH  53  54
ATOM     54  C   UNK A  1        4.539   4.301  -2.132  0.00  0.00    +0.002 C 
BRANCH  54  55
ATOM     55  C   UNK A  1        5.292   5.388  -2.924  0.00  0.00    +0.019 C 
BRANCH  55  56
ATOM     56  C   UNK A  1        4.832   6.829  -2.618  0.00  0.00    +0.104 C 
BRANCH  56  57
ATOM     57  N   UNK A  1        4.993   7.230  -1.221  0.00  0.00    -0.315 N 
ATOM     58  H   UNK A  1        4.153   7.260  -0.663  0.00  0.00    +0.149 HD
ATOM     59  C   UNK A  1        6.160   7.564  -0.642  0.00  0.00    +0.213 C 
ATOM     60  O   UNK A  1        7.239   7.557  -1.238  0.00  0.00    -0.276 OA
BRANCH  59  61
ATOM     61  C   UNK A  1        6.096   7.952   0.842  0.00  0.00    +0.098 C 
BRANCH  61  62
ATOM     62  C   UNK A  1        7.037   9.121   1.236  0.00  0.00    +0.043 C 
BRANCH  62  63
ATOM     63  C   UNK A  1        6.564   9.989   2.434  0.00  0.00    +0.183 C 
BRANCH  63  64
ATOM     64  N   UNK A  1        7.433  11.176   2.564  0.00  0.00    -0.286 N 
ATOM     65  H   UNK A  1        8.346  11.087   2.144  0.00  0.00    +0.151 HD
ATOM     66  C   UNK A  0        7.110  12.339   3.157  0.00  0.00    +0.301 C 
ATOM     67  N   UNK A  1        8.120  13.225   3.080  0.00  0.00    -0.286 N 
ATOM     68  H   UNK A  1        9.027  12.878   2.805  0.00  0.00    +0.151 HD
ATOM     69  O   UNK A  0        6.021  12.568   3.685  0.00  0.00    -0.253 OA
BRANCH  67  70
ATOM     70  C   UNK A  1        8.113  14.640   3.502  0.00  0.00    +0.183 C 
BRANCH  70  71
ATOM     71  C   UNK A  1        7.035  15.491   2.724  0.00  0.00    +0.325 C 
ATOM     72  O   UNK A  1        6.127  15.964   3.446  0.00  0.00    -0.249 OA
BRANCH  71  73
ATOM     73  O   UNK A  1        7.197  15.600   1.484  0.00  0.00    -0.479 OA
ATOM     74  H   UNK A  1        6.587  16.095   0.973  0.00  0.00    +0.295 HD
ENDBRANCH  71  73
ENDBRANCH  70  71
BRANCH  70  75
ATOM     75  C   UNK A  1        9.529  15.244   3.268  0.00  0.00    +0.045 C 
BRANCH  75  76
ATOM     76  C   UNK A  1       10.633  14.605   4.146  0.00  0.00    +0.123 C 
BRANCH  76  77
ATOM     77  C   UNK A  1       12.051  15.182   3.972  0.00  0.00    +0.305 C 
ATOM     78  O   UNK A  1       12.946  14.671   4.681  0.00  0.00    -0.251 OA
BRANCH  77  79
ATOM     79  O   UNK A  1       12.243  16.109   3.152  0.00  0.00    -0.481 OA
ATOM     80  H   UNK A  1       13.102  16.465   3.041  0.00  0.00    +0.295 HD
ENDBRANCH  77  79
ENDBRANCH  76  77
ENDBRANCH  75  76
ENDBRANCH  70  75
ENDBRANCH  67  70
ENDBRANCH  63  64
BRANCH  63  81
ATOM     81  C   UNK A  1        6.462   9.159   3.776  0.00  0.00    +0.325 C 
ATOM     82  O   UNK A  1        5.370   8.566   3.934  0.00  0.00    -0.249 OA
BRANCH  81  83
ATOM     83  O   UNK A  1        7.482   9.128   4.507  0.00  0.00    -0.479 OA
ATOM     84  H   UNK A  1        7.467   8.649   5.312  0.00  0.00    +0.295 HD
ENDBRANCH  81  83
ENDBRANCH  63  81
ENDBRANCH  62  63
ENDBRANCH  61  62
ENDBRANCH  59  61
ENDBRANCH  56  57
ENDBRANCH  55  56
ENDBRANCH  54  55
ENDBRANCH  53  54
ENDBRANCH  52  53
ENDBRANCH  51  52
ENDBRANCH  50  51
ENDBRANCH  48  50
ENDBRANCH   1  46
BRANCH   1  85
ATOM     85  C   UNK A  1       -0.509  -0.858   0.940  0.00  0.00    +0.067 C 
BRANCH  85  86
ATOM     86  C   UNK A  1       -1.952  -0.483   1.245  0.00  0.00    -0.045 A 
ATOM     87  C   UNK A  1       -3.007  -1.127   0.564  0.00  0.00    +0.004 A 
ATOM     88  C   UNK A  1       -4.315  -0.697   0.742  0.00  0.00    +0.000 A 
ATOM     89  C   UNK A  1       -4.590   0.382   1.573  0.00  0.00    +0.000 A 
ATOM     90  C   UNK A  1       -3.560   1.045   2.228  0.00  0.00    +0.000 A 
ATOM     91  C   UNK A  1       -2.245   0.630   2.063  0.00  0.00    +0.004 A 
ENDBRANCH  85  86
ENDBRANCH   1  85
TORSDOF 43
