REMARK  Name = DB15091
REMARK                            x       y       z     vdW  Elec       q    Type
REMARK                         _______ _______ _______ _____ _____    ______ ____
ROOT
ATOM      1  C   LIG    1       -1.954   0.147   1.487  0.00  0.00    +0.017 C 
ATOM      2  C   LIG    1       -1.715   1.489   0.772  0.00  0.00    +0.060 C 
ATOM      3  C   LIG    1       -0.189   1.604   0.729  0.00  0.00    +0.119 C 
ATOM      4  N   LIG    1        0.236   0.211   0.562  0.00  0.00    -0.285 N 
ATOM      5  C   LIG    1        1.499  -0.119   0.193  0.00  0.00    +0.302 C 
ATOM      6  N   LIG    1        1.732  -1.442   0.068  0.00  0.00    -0.291 N 
ATOM      7  H   LIG    1        0.963  -2.079   0.212  0.00  0.00    +0.151 HD
ATOM      8  O   LIG    1        2.369   0.726  -0.028  0.00  0.00    -0.253 OA
ATOM      9  C   LIG    1       -0.852  -0.733   0.871  0.00  0.00    +0.113 C 
ENDROOT
BRANCH   2  10
ATOM     10  C   LIG    1       -2.420   2.702   1.367  0.00  0.00    +0.049 A 
ATOM     11  N   LIG    1       -3.778   2.938   1.277  0.00  0.00    -0.292 N 
ATOM     12  C   LIG    1       -4.821   2.244   0.615  0.00  0.00    +0.092 A 
ATOM     13  C   LIG    1       -4.915   1.085  -0.222  0.00  0.00    +0.047 A 
ATOM     14  C   LIG    1       -6.260   0.964  -0.526  0.00  0.00    +0.086 A 
ATOM     15  N   LIG    1       -6.972   1.984   0.066  0.00  0.00    -0.345 N 
ATOM     16  H   LIG    1       -7.972   2.086  -0.035  0.00  0.00    +0.167 HD
ATOM     17  C   LIG    1       -6.110   2.797   0.771  0.00  0.00    +0.155 A 
ATOM     18  N   LIG    1       -6.411   3.897   1.469  0.00  0.00    -0.232 NA
ATOM     19  C   LIG    1       -5.365   4.537   2.070  0.00  0.00    +0.159 A 
ATOM     20  C   LIG    1       -4.026   4.107   2.007  0.00  0.00    +0.157 A 
ATOM     21  N   LIG    1       -2.884   4.616   2.528  0.00  0.00    -0.234 NA
ATOM     22  C   LIG    1       -1.952   3.774   2.136  0.00  0.00    +0.135 A 
ENDBRANCH   2  10
BRANCH   1  24
ATOM     23  C   LIG    1       -2.235  -1.106   3.739  0.00  0.00    +0.004 C 
ATOM     24  C   LIG    1       -1.883   0.215   3.037  0.00  0.00    +0.002 C 
ENDBRANCH   1  24
BRANCH   6  25
ATOM     25  C   LIG    1        3.030  -2.054  -0.228  0.00  0.00    +0.218 C 
BRANCH  25  26
ATOM     26  C   LIG    1        3.919  -2.268   1.013  0.00  0.00    +0.405 C 
ATOM     27  F   LIG    1        3.313  -3.039   1.916  0.00  0.00    -0.169 F 
ATOM     28  F   LIG    1        4.225  -1.117   1.613  0.00  0.00    -0.169 F 
ATOM     29  F   LIG    1        5.064  -2.863   0.678  0.00  0.00    -0.169 F 
ENDBRANCH  25  26
ENDBRANCH   6  25
TORSDOF 4
