REMARK  Name = DB15327
REMARK                            x       y       z     vdW  Elec       q    Type
REMARK                         _______ _______ _______ _____ _____    ______ ____
ROOT
ATOM      1  C   LIG    1        2.359  -1.381   1.025  0.00  0.00    +0.224 A 
ATOM      2  N   LIG    1        2.996  -2.439   1.599  0.00  0.00    -0.196 NA
ATOM      3  C   LIG    1        4.329  -2.410   1.469  0.00  0.00    +0.147 A 
ATOM      4  N   LIG    1        5.233  -3.336   1.944  0.00  0.00    -0.346 N 
ATOM      5  H   LIG    1        5.038  -4.178   2.465  0.00  0.00    +0.167 HD
ATOM      6  C   LIG    1        6.508  -2.946   1.602  0.00  0.00    +0.085 A 
ATOM      7  C   LIG    1        6.458  -1.758   0.895  0.00  0.00    +0.034 A 
ATOM      8  C   LIG    1        5.073  -1.399   0.800  0.00  0.00    +0.081 A 
ATOM      9  C   LIG    1        4.307  -0.362   0.248  0.00  0.00    +0.234 A 
ATOM     10  N   LIG    1        2.951  -0.350   0.366  0.00  0.00    -0.178 NA
ENDROOT
BRANCH   1  11
ATOM     11  N   LIG    1        0.958  -1.413   1.102  0.00  0.00    -0.283 N 
ATOM     12  H   LIG    1        0.588  -2.246   1.536  0.00  0.00    +0.155 HD
BRANCH  11  16
ATOM     13  C   LIG    1       -2.016   1.224  -0.327  0.00  0.00    +0.065 A 
ATOM     14  C   LIG    1       -0.788   1.730   0.118  0.00  0.00    +0.028 A 
ATOM     15  C   LIG    1        0.199   0.876   0.605  0.00  0.00    +0.025 A 
ATOM     16  C   LIG    1       -0.013  -0.507   0.640  0.00  0.00    +0.036 A 
ATOM     17  C   LIG    1       -1.243  -1.013   0.215  0.00  0.00    +0.063 A 
ATOM     18  C   LIG    1       -2.236  -0.159  -0.268  0.00  0.00    +0.146 A 
ATOM     19  F   LIG    1       -3.411  -0.689  -0.684  0.00  0.00    -0.203 F 
BRANCH  13  20
ATOM     20  N   LIG    1       -3.007   2.058  -0.823  0.00  0.00    -0.331 N 
ATOM     21  C   LIG    1       -2.869   2.623  -2.174  0.00  0.00    +0.086 C 
ATOM     22  C   LIG    1       -2.143   3.986  -2.214  0.00  0.00    -0.060 C 
ATOM     23  N   LIG    1       -2.923   4.983  -1.337  0.00  0.00    +0.380 N 
ATOM     24  H   LIG    1       -3.860   5.068  -1.708  0.00  0.00    -0.082 HD
ATOM     25  C   LIG    1       -2.241   6.365  -1.342  0.00  0.00    -0.096 C 
ATOM     26  C   LIG    1       -3.018   4.428   0.099  0.00  0.00    -0.060 C 
ATOM     27  C   LIG    1       -3.676   3.028   0.060  0.00  0.00    +0.086 C 
ENDBRANCH  13  20
ENDBRANCH  11  16
ENDBRANCH   1  11
BRANCH   9  28
ATOM     28  O   LIG    1        4.973   0.660  -0.406  0.00  0.00    -0.437 OA
BRANCH  28  29
ATOM     29  C   LIG    1        4.308   1.713  -1.002  0.00  0.00    +0.132 A 
ATOM     30  C   LIG    1        3.298   1.515  -1.954  0.00  0.00    +0.069 A 
ATOM     31  C   LIG    1        2.637   2.611  -2.532  0.00  0.00    +0.037 A 
ATOM     32  C   LIG    1        3.034   3.906  -2.191  0.00  0.00    +0.023 A 
ATOM     33  C   LIG    1        4.053   4.107  -1.260  0.00  0.00    +0.005 A 
ATOM     34  C   LIG    1        4.685   3.015  -0.667  0.00  0.00    +0.046 A 
BRANCH  31  35
ATOM     35  N   LIG    1        1.614   2.481  -3.486  0.00  0.00    -0.282 N 
ATOM     36  H   LIG    1        1.518   3.258  -4.122  0.00  0.00    +0.155 HD
ATOM     37  C   LIG    1        0.690   1.495  -3.578  0.00  0.00    +0.241 C 
ATOM     38  O   LIG    1        0.595   0.558  -2.785  0.00  0.00    -0.271 OA
BRANCH  37  39
ATOM     39  C   LIG    1       -0.215   1.593  -4.702  0.00  0.00    +0.060 C 
ATOM     40  C   LIG    1       -0.584   2.746  -5.294  0.00  0.00    +0.013 C 
ENDBRANCH  37  39
ENDBRANCH  31  35
ENDBRANCH  28  29
ENDBRANCH   9  28
TORSDOF 7
