REMARK  Name = DB15124
REMARK                            x       y       z     vdW  Elec       q    Type
REMARK                         _______ _______ _______ _____ _____    ______ ____
ROOT
ATOM      1  N   LIG    1        5.585   0.196   0.041  0.00  0.00    -0.230 N 
ATOM      2  C   LIG    1        6.415   1.164   0.599  0.00  0.00    +0.075 A 
ATOM      3  C   LIG    1        6.164   2.340   1.316  0.00  0.00    +0.029 A 
ATOM      4  C   LIG    1        7.268   3.082   1.732  0.00  0.00    +0.015 A 
ATOM      5  C   LIG    1        8.594   2.703   1.469  0.00  0.00    +0.039 A 
ATOM      6  C   LIG    1        8.822   1.509   0.755  0.00  0.00    +0.025 A 
ATOM      7  C   LIG    1        7.736   0.736   0.321  0.00  0.00    +0.024 A 
ATOM      8  C   LIG    1        7.584  -0.490  -0.395  0.00  0.00    +0.068 A 
ATOM      9  C   LIG    1        8.649  -1.407  -0.951  0.00  0.00    +0.068 C 
ATOM     10  N   LIG    1        6.317  -0.777  -0.546  0.00  0.00    -0.170 NA
ENDROOT
BRANCH   1  15
ATOM     11  C   LIG    1        1.403   0.122  -0.092  0.00  0.00    +0.234 A 
ATOM     12  C   LIG    1        2.092  -1.090   0.033  0.00  0.00    +0.104 A 
ATOM     13 CL   LIG    1        1.245  -2.591   0.157  0.00  0.00    -0.078 Cl
ATOM     14  C   LIG    1        3.488  -1.072   0.065  0.00  0.00    +0.054 A 
ATOM     15  C   LIG    1        4.173   0.147  -0.033  0.00  0.00    +0.086 A 
ATOM     16  C   LIG    1        3.412   1.317  -0.146  0.00  0.00    +0.142 A 
ATOM     17  N   LIG    1        2.056   1.317  -0.181  0.00  0.00    -0.218 NA
BRANCH  11  18
ATOM     18  O   LIG    1        0.018   0.108  -0.117  0.00  0.00    -0.475 OA
BRANCH  18  19
ATOM     19  C   LIG    1       -0.707   1.338  -0.083  0.00  0.00    +0.233 C 
BRANCH  19  21
ATOM     20  C   LIG    1       -3.039   2.352  -0.049  0.00  0.00    +0.010 C 
ATOM     21  C   LIG    1       -2.219   1.050   0.009  0.00  0.00    +0.020 C 
ATOM     22  C   LIG    1       -2.578   0.225   1.261  0.00  0.00    +0.010 C 
ENDBRANCH  19  21
ENDBRANCH  18  19
ENDBRANCH  11  18
ENDBRANCH   1  15
BRANCH   5  23
ATOM     23  C   LIG    1        9.735   3.590   1.961  0.00  0.00    +0.263 C 
ATOM     24  N   LIG    1       10.947   3.179   1.659  0.00  0.00    -0.186 N 
ATOM     25  H   LIG    1       11.066   2.340   1.157  0.00  0.00    +0.176 HD
ATOM     26  O   LIG    1        9.456   4.615   2.593  0.00  0.00    -0.269 OA
BRANCH  24  27
ATOM     27  S   LIG    1       12.207   4.011   2.089  0.00  0.00    +0.043 S 
ATOM     28  O   LIG    1       12.417   4.032   3.541  0.00  0.00    -0.155 OA
ATOM     29  O   LIG    1       12.320   5.292   1.382  0.00  0.00    -0.155 OA
ATOM     30  C   LIG    1       13.628   2.969   1.417  0.00  0.00    +0.218 C 
ENDBRANCH  24  27
ENDBRANCH   5  23
TORSDOF 6
