REMARK  Name = DB15460
REMARK                            x       y       z     vdW  Elec       q    Type
REMARK                         _______ _______ _______ _____ _____    ______ ____
ROOT
ATOM      1  C   LIG    1        1.550  -0.024  -0.049  0.00  0.00    +0.160 C 
ENDROOT
BRANCH   1   4
ATOM      2  N   LIG    1       -0.504   1.313  -0.095  0.00  0.00    -0.308 N 
ATOM      3  H   LIG    1        0.150   2.076  -0.198  0.00  0.00    +0.149 HD
ATOM      4  C   LIG    1        0.011   0.074   0.020  0.00  0.00    +0.234 C 
ATOM      5  O   LIG    1       -0.660  -0.950   0.155  0.00  0.00    -0.274 OA
BRANCH   2   7
ATOM      6  C   LIG    1       -2.654   1.106  -1.325  0.00  0.00    +0.031 C 
ATOM      7  C   LIG    1       -1.923   1.709  -0.098  0.00  0.00    +0.033 C 
ATOM      8  C   LIG    1       -1.958   3.247  -0.249  0.00  0.00    +0.031 C 
BRANCH   7   9
ATOM      9  C   LIG    1       -2.682   1.285   1.203  0.00  0.00    +0.060 C 
BRANCH   9  10
ATOM     10  C   LIG    1       -2.053   1.712   2.530  0.00  0.00    -0.045 A 
ATOM     11  C   LIG    1       -2.323   2.978   3.059  0.00  0.00    +0.006 A 
ATOM     12  C   LIG    1       -1.756   3.362   4.272  0.00  0.00    +0.038 A 
ATOM     13  C   LIG    1       -0.928   2.477   4.959  0.00  0.00    +0.123 A 
ATOM     14  F   LIG    1       -0.378   2.850   6.137  0.00  0.00    -0.205 F 
ATOM     15  C   LIG    1       -0.666   1.209   4.445  0.00  0.00    +0.038 A 
ATOM     16  C   LIG    1       -1.229   0.827   3.231  0.00  0.00    +0.006 A 
ENDBRANCH   9  10
ENDBRANCH   7   9
ENDBRANCH   2   7
ENDBRANCH   1   4
BRANCH   1  17
ATOM     17  N   LIG    1        2.067  -0.783   1.095  0.00  0.00    -0.300 N 
ATOM     18  H   LIG    1        2.244  -1.761   0.922  0.00  0.00    +0.150 HD
ATOM     19  C   LIG    1        2.284  -0.287   2.329  0.00  0.00    +0.245 C 
ATOM     20  O   LIG    1        2.083   0.896   2.616  0.00  0.00    -0.270 OA
BRANCH  19  21
ATOM     21  C   LIG    1        2.780  -1.264   3.375  0.00  0.00    +0.037 A 
ATOM     22  C   LIG    1        3.246  -2.541   3.029  0.00  0.00    +0.013 A 
ATOM     23  C   LIG    1        3.695  -3.420   4.010  0.00  0.00    +0.009 A 
ATOM     24  C   LIG    1        3.697  -3.051   5.361  0.00  0.00    -0.018 A 
ATOM     25  C   LIG    1        3.234  -1.775   5.702  0.00  0.00    +0.009 A 
ATOM     26  C   LIG    1        2.781  -0.893   4.725  0.00  0.00    +0.013 A 
BRANCH  24  27
ATOM     27  C   LIG    1        4.186  -3.995   6.412  0.00  0.00    -0.018 A 
ATOM     28  C   LIG    1        4.869  -3.519   7.541  0.00  0.00    +0.008 A 
ATOM     29  C   LIG    1        5.330  -4.396   8.519  0.00  0.00    +0.001 A 
ATOM     30  C   LIG    1        5.110  -5.763   8.378  0.00  0.00    +0.000 A 
ATOM     31  C   LIG    1        4.434  -6.257   7.267  0.00  0.00    +0.001 A 
ATOM     32  C   LIG    1        3.975  -5.377   6.290  0.00  0.00    +0.008 A 
ENDBRANCH  24  27
ENDBRANCH  19  21
ENDBRANCH   1  17
BRANCH   1  33
ATOM     33  C   LIG    1        2.008  -0.690  -1.370  0.00  0.00    +0.043 C 
BRANCH  33  34
ATOM     34  C   LIG    1        3.547  -0.757  -1.539  0.00  0.00    +0.123 C 
BRANCH  34  35
ATOM     35  C   LIG    1        4.049  -1.382  -2.853  0.00  0.00    +0.305 C 
ATOM     36  O   LIG    1        5.290  -1.422  -3.005  0.00  0.00    -0.251 OA
BRANCH  35  37
ATOM     37  O   LIG    1        3.219  -1.814  -3.684  0.00  0.00    -0.481 OA
ATOM     38  H   LIG    1        3.515  -2.196  -4.487  0.00  0.00    +0.295 HD
ENDBRANCH  35  37
ENDBRANCH  34  35
ENDBRANCH  33  34
ENDBRANCH   1  33
TORSDOF 11
