REMARK  Name = DB15229
REMARK                            x       y       z     vdW  Elec       q    Type
REMARK                         _______ _______ _______ _____ _____    ______ ____
ROOT
ATOM      1  C   LIG    1       -2.378  -1.409  -0.100  0.00  0.00    +0.029 C 
ATOM      2  C   LIG    1       -1.885  -0.590   1.108  0.00  0.00    +0.089 C 
ATOM      3  N   LIG    1       -2.350   0.827   1.113  0.00  0.00    -0.292 N 
ATOM      4  C   LIG    1       -3.422   1.190   1.873  0.00  0.00    +0.249 C 
ATOM      5  O   LIG    1       -4.064   0.395   2.564  0.00  0.00    -0.270 OA
ATOM      6  C   LIG    1       -1.707   1.744   0.136  0.00  0.00    +0.125 C 
ATOM      7  C   LIG    1       -0.186   1.693   0.385  0.00  0.00    +0.128 C 
ATOM      8  N   LIG    1        0.283   0.301   0.224  0.00  0.00    -0.173 NA
ATOM      9  C   LIG    1       -0.335  -0.589   1.233  0.00  0.00    +0.131 C 
ENDROOT
BRANCH   4  10
ATOM     10  C   LIG    1       -3.832   2.642   1.904  0.00  0.00    +0.058 A 
ATOM     11  C   LIG    1       -5.061   3.088   1.378  0.00  0.00    +0.050 A 
ATOM     12  C   LIG    1       -6.067   2.154   0.714  0.00  0.00    +0.066 C 
ATOM     13  N   LIG    1       -5.441   4.394   1.418  0.00  0.00    -0.259 NA
ATOM     14  C   LIG    1       -4.599   5.292   1.989  0.00  0.00    +0.111 A 
ATOM     15  C   LIG    1       -3.368   4.934   2.536  0.00  0.00    +0.020 A 
ATOM     16  C   LIG    1       -2.986   3.593   2.493  0.00  0.00    +0.016 A 
ENDBRANCH   4  10
BRANCH   8  17
ATOM     17  S   LIG    1        2.028   0.103   0.006  0.00  0.00    +0.061 S 
ATOM     18  O   LIG    1        2.311  -1.333  -0.106  0.00  0.00    -0.153 OA
ATOM     19  O   LIG    1        2.706   0.910   1.028  0.00  0.00    -0.153 OA
BRANCH  17  20
ATOM     20  C   LIG    1        2.381   0.830  -1.593  0.00  0.00    +0.106 A 
ATOM     21  C   LIG    1        2.182   0.077  -2.751  0.00  0.00    +0.029 A 
ATOM     22  C   LIG    1        2.441   0.640  -3.997  0.00  0.00    +0.014 A 
ATOM     23  C   LIG    1        2.895   1.961  -4.093  0.00  0.00    +0.055 A 
ATOM     24  C   LIG    1        3.091   2.709  -2.928  0.00  0.00    +0.014 A 
ATOM     25  C   LIG    1        2.833   2.148  -1.680  0.00  0.00    +0.029 A 
BRANCH  23  26
ATOM     26  C   LIG    1        3.192   2.594  -5.452  0.00  0.00    +0.417 C 
ATOM     27  F   LIG    1        4.373   3.212  -5.426  0.00  0.00    -0.166 F 
ATOM     28  F   LIG    1        2.247   3.493  -5.731  0.00  0.00    -0.166 F 
ATOM     29  F   LIG    1        3.219   1.695  -6.437  0.00  0.00    -0.166 F 
ENDBRANCH  23  26
ENDBRANCH  17  20
ENDBRANCH   8  17
TORSDOF 4
