REMARK  Name = DB15190
REMARK                            x       y       z     vdW  Elec       q    Type
REMARK                         _______ _______ _______ _____ _____    ______ ____
ROOT
ATOM      1  N   LIG    1        5.564  -0.142  -0.047  0.00  0.00    -0.296 N 
ATOM      2  H   LIG    1        6.131   0.610   0.319  0.00  0.00    +0.154 HD
ENDROOT
BRANCH   1   3
ATOM      3  C   LIG    1        6.255  -1.009  -0.910  0.00  0.00    +0.168 A 
ATOM      4  C   LIG    1        7.652  -0.867  -1.055  0.00  0.00    +0.197 A 
ATOM      5  N   LIG    1        8.576  -0.032  -0.514  0.00  0.00    -0.212 NA
ATOM      6  C   LIG    1        9.688  -0.443  -1.091  0.00  0.00    +0.246 A 
ATOM      7  N   LIG    1        9.618  -1.445  -1.945  0.00  0.00    -0.153 NA
ATOM      8  N   LIG    1        8.298  -1.745  -1.935  0.00  0.00    -0.208 N 
ATOM      9  C   LIG    1        7.628  -2.714  -2.651  0.00  0.00    +0.096 A 
ATOM     10  C   LIG    1        6.246  -2.778  -2.458  0.00  0.00    +0.141 A 
ATOM     11  N   LIG    1        5.574  -1.955  -1.616  0.00  0.00    -0.234 NA
BRANCH   9  12
ATOM     12  C   LIG    1        8.350  -3.634  -3.587  0.00  0.00    +0.040 A 
ATOM     13  C   LIG    1        7.808  -4.287  -4.704  0.00  0.00    +0.064 A 
ATOM     14  C   LIG    1        8.816  -5.038  -5.302  0.00  0.00    +0.189 A 
ATOM     15  O   LIG    1        9.954  -4.905  -4.575  0.00  0.00    -0.458 OA
ATOM     16  C   LIG    1        9.676  -4.056  -3.553  0.00  0.00    +0.206 A 
BRANCH  14  17
ATOM     17  C   LIG    1        8.828  -5.917  -6.440  0.00  0.00    +0.277 C 
ATOM     18  O   LIG    1        9.786  -6.645  -6.693  0.00  0.00    -0.267 OA
ATOM     19  N   LIG    1        7.732  -5.865  -7.204  0.00  0.00    -0.323 N 
ATOM     20  H   LIG    1        7.666  -6.441  -8.031  0.00  0.00    +0.145 HD
ATOM     21  H   LIG    1        6.969  -5.251  -6.964  0.00  0.00    +0.145 HD
ENDBRANCH  14  17
ENDBRANCH   9  12
ENDBRANCH   1   3
BRANCH   1  25
ATOM     22  C   LIG    1        1.558   0.084   1.247  0.00  0.00    +0.030 A 
ATOM     23  C   LIG    1        2.110  -1.156   0.903  0.00  0.00    +0.025 A 
ATOM     24  C   LIG    1        3.429  -1.252   0.468  0.00  0.00    +0.025 A 
ATOM     25  C   LIG    1        4.222  -0.104   0.371  0.00  0.00    +0.033 A 
ATOM     26  C   LIG    1        3.688   1.130   0.739  0.00  0.00    +0.025 A 
ATOM     27  C   LIG    1        2.369   1.224   1.173  0.00  0.00    +0.025 A 
BRANCH  22  32
ATOM     28  N   LIG    1       -2.475   0.414   0.587  0.00  0.00    +0.385 N 
ATOM     29  H   LIG    1       -3.423   0.092   0.722  0.00  0.00    -0.081 HD
ATOM     30  C   LIG    1       -2.006   0.932   1.977  0.00  0.00    -0.049 C 
ATOM     31  C   LIG    1       -0.542   1.412   1.901  0.00  0.00    +0.090 C 
ATOM     32  N   LIG    1        0.235   0.181   1.707  0.00  0.00    -0.330 N 
ATOM     33  C   LIG    1       -0.794  -0.873   1.740  0.00  0.00    +0.055 C 
ATOM     34  C   LIG    1       -1.827  -0.367   2.735  0.00  0.00    +0.007 C 
ATOM     35  C   LIG    1       -1.573  -0.835   0.407  0.00  0.00    -0.055 C 
BRANCH  28  37
ATOM     36  C   LIG    1       -3.215   2.703  -0.213  0.00  0.00    -0.014 C 
ATOM     37  C   LIG    1       -2.452   1.419  -0.595  0.00  0.00    -0.074 C 
ATOM     38  C   LIG    1       -3.062   0.746  -1.839  0.00  0.00    -0.014 C 
ENDBRANCH  28  37
ENDBRANCH  22  32
ENDBRANCH   1  25
TORSDOF 6
