REMARK  Name = DB15357
REMARK                            x       y       z     vdW  Elec       q    Type
REMARK                         _______ _______ _______ _____ _____    ______ ____
ROOT
ATOM      1  C   LIG    1        3.484   0.668  -1.222  0.00  0.00    +0.250 A 
ATOM      2  C   LIG    1        4.082   1.440  -2.298  0.00  0.00    +0.137 A 
ATOM      3  N   LIG    1        5.402   1.472  -2.215  0.00  0.00    -0.187 NA
ATOM      4  S   LIG    1        5.873   0.577  -0.898  0.00  0.00    +0.119 S 
ATOM      5  N   LIG    1        4.360   0.138  -0.384  0.00  0.00    -0.154 NA
ENDROOT
BRANCH   2   6
ATOM      6  C   LIG    1        3.393   2.155  -3.383  0.00  0.00    -0.037 C 
ATOM      7  C   LIG    1        4.084   3.383  -4.000  0.00  0.00    -0.041 C 
ATOM      8  N   LIG    1        3.501   3.704  -5.398  0.00  0.00    +0.381 N 
ATOM      9  H   LIG    1        3.749   2.957  -6.031  0.00  0.00    -0.082 HD
ATOM     10  C   LIG    1        4.087   5.028  -5.927  0.00  0.00    -0.096 C 
ATOM     11  C   LIG    1        1.962   3.778  -5.327  0.00  0.00    -0.075 C 
ATOM     12  C   LIG    1        1.410   2.379  -4.970  0.00  0.00    +0.009 C 
ATOM     13  C   LIG    1        2.196   1.718  -3.843  0.00  0.00    -0.025 C 
ENDBRANCH   2   6
BRANCH   1  14
ATOM     14  O   LIG    1        2.139   0.527  -1.064  0.00  0.00    -0.475 OA
BRANCH  14  15
ATOM     15  C   LIG    1        1.634  -0.114   0.108  0.00  0.00    +0.231 C 
BRANCH  15  16
ATOM     16  C   LIG    1        0.098  -0.110   0.060  0.00  0.00    +0.041 C 
BRANCH  16  17
ATOM     17  C   LIG    1       -0.513   1.305   0.032  0.00  0.00    +0.003 C 
BRANCH  17  18
ATOM     18  C   LIG    1       -2.050   1.294  -0.050  0.00  0.00    -0.000 C 
BRANCH  18  20
ATOM     19  C   LIG    1       -4.189   2.697  -0.178  0.00  0.00    +0.004 C 
ATOM     20  C   LIG    1       -2.658   2.707  -0.074  0.00  0.00    -0.003 C 
ENDBRANCH  18  20
ENDBRANCH  17  18
ENDBRANCH  16  17
ENDBRANCH  15  16
ENDBRANCH  14  15
ENDBRANCH   1  14
TORSDOF 7
