REMARK  Name = DB15021
REMARK                            x       y       z     vdW  Elec       q    Type
REMARK                         _______ _______ _______ _____ _____    ______ ____
ROOT
ATOM      1  C   LIG    1        3.464   0.519  -1.179  0.00  0.00    +0.121 A 
ATOM      2  C   LIG    1        3.947   1.178  -2.310  0.00  0.00    +0.046 A 
ATOM      3  C   LIG    1        5.316   1.261  -2.551  0.00  0.00    +0.007 A 
ATOM      4  C   LIG    1        6.217   0.682  -1.655  0.00  0.00    -0.046 A 
ATOM      5  C   LIG    1        5.743   0.019  -0.522  0.00  0.00    +0.007 A 
ATOM      6  C   LIG    1        4.374  -0.063  -0.282  0.00  0.00    +0.046 A 
ENDROOT
BRANCH   1   7
ATOM      7  O   LIG    1        2.091   0.487  -1.026  0.00  0.00    -0.492 OA
BRANCH   7   8
ATOM      8  C   LIG    1        1.528  -0.166   0.110  0.00  0.00    +0.235 C 
BRANCH   8   9
ATOM      9  C   LIG    1       -0.005  -0.050   0.059  0.00  0.00    +0.096 C 
BRANCH   9  13
ATOM     10  C   LIG    1       -1.352   4.010   0.264  0.00  0.00    -0.001 A 
ATOM     11  C   LIG    1       -1.508   3.309  -0.940  0.00  0.00    +0.009 A 
ATOM     12  C   LIG    1       -1.079   1.983  -1.032  0.00  0.00    +0.024 A 
ATOM     13  C   LIG    1       -0.504   1.388   0.094  0.00  0.00    +0.045 A 
ATOM     14  N   LIG    1       -0.346   2.047   1.272  0.00  0.00    -0.259 NA
ATOM     15  C   LIG    1       -0.768   3.335   1.342  0.00  0.00    +0.117 A 
BRANCH  10  17
ATOM     16  C   LIG    1       -3.320   5.551   0.692  0.00  0.00    +0.043 C 
ATOM     17  C   LIG    1       -1.810   5.458   0.415  0.00  0.00    +0.143 C 
BRANCH  17  18
ATOM     18  O   LIG    1       -1.515   6.250  -0.720  0.00  0.00    -0.387 OA
ATOM     19  H   LIG    1       -0.561   6.301  -0.815  0.00  0.00    +0.210 HD
ENDBRANCH  17  18
ENDBRANCH  10  17
ENDBRANCH   9  13
ENDBRANCH   8   9
ENDBRANCH   7   8
ENDBRANCH   1   7
BRANCH   4  20
ATOM     20  C   LIG    1        7.717   0.775  -1.920  0.00  0.00    +0.059 C 
BRANCH  20  21
ATOM     21  C   LIG    1        8.322   2.193  -1.752  0.00  0.00    +0.146 C 
ATOM     22  C   LIG    1        8.291   2.689  -0.302  0.00  0.00    +0.234 C 
ATOM     23  O   LIG    1        7.265   2.845   0.358  0.00  0.00    -0.274 OA
ATOM     24  N   LIG    1        9.530   2.937   0.140  0.00  0.00    -0.246 N 
ATOM     25  H   LIG    1        9.660   3.261   1.087  0.00  0.00    +0.158 HD
ATOM     26  C   LIG    1       10.597   2.771  -0.648  0.00  0.00    +0.279 C 
ATOM     27  O   LIG    1       11.772   2.967  -0.347  0.00  0.00    -0.263 OA
ATOM     28  S   LIG    1       10.051   2.216  -2.272  0.00  0.00    -0.054 S 
ENDBRANCH  20  21
ENDBRANCH   4  20
TORSDOF 8
