REMARK  Name = DB15059
REMARK                            x       y       z     vdW  Elec       q    Type
REMARK                         _______ _______ _______ _____ _____    ______ ____
ROOT
ATOM      1  C   LIG    1       -2.320   0.942   0.014  0.00  0.00    +0.153 A 
ATOM      2  N   LIG    1       -2.932  -0.280   0.025  0.00  0.00    -0.219 NA
ATOM      3  C   LIG    1       -2.156  -1.387   0.028  0.00  0.00    +0.227 A 
ATOM      4  N   LIG    1       -0.806  -1.406   0.018  0.00  0.00    -0.201 NA
ATOM      5  C   LIG    1       -0.187  -0.192   0.006  0.00  0.00    +0.228 A 
ATOM      6  C   LIG    1       -0.905   1.017   0.005  0.00  0.00    +0.085 A 
ENDROOT
BRANCH   6   7
ATOM      7  C   LIG    1       -0.168   2.310  -0.005  0.00  0.00    -0.009 A 
ATOM      8  C   LIG    1        0.203   2.898  -1.218  0.00  0.00    +0.010 A 
ATOM      9  C   LIG    1        0.896   4.106  -1.228  0.00  0.00    +0.016 A 
ATOM     10  C   LIG    1        1.220   4.725  -0.023  0.00  0.00    +0.018 A 
ATOM     11 BR   LIG    1        2.170   6.375  -0.035  0.00  0.00    -0.050 Br
ATOM     12  C   LIG    1        0.855   4.147   1.191  0.00  0.00    +0.016 A 
ATOM     13  C   LIG    1        0.161   2.940   1.198  0.00  0.00    +0.010 A 
ENDBRANCH   6   7
BRANCH   1  14
ATOM     14  N   LIG    1       -3.063   2.103   0.008  0.00  0.00    -0.189 N 
ATOM     15  H   LIG    1       -2.587   2.965   0.004  0.00  0.00    +0.176 HD
BRANCH  14  16
ATOM     16  S   LIG    1       -4.629   2.116   0.006  0.00  0.00    +0.108 S 
ATOM     17  O   LIG    1       -5.196   1.689  -1.278  0.00  0.00    -0.138 OA
ATOM     18  O   LIG    1       -5.244   1.585   1.228  0.00  0.00    -0.138 OA
BRANCH  16  19
ATOM     19  N   LIG    1       -4.904   3.841   0.061  0.00  0.00    -0.191 NA
ATOM     20  H   LIG    1       -4.196   4.369  -0.456  0.00  0.00    +0.146 HD
ATOM     21  H   LIG    1       -5.846   4.103  -0.236  0.00  0.00    +0.146 HD
ENDBRANCH  16  19
ENDBRANCH  14  16
ENDBRANCH   1  14
BRANCH   5  22
ATOM     22  O   LIG    1        1.199  -0.151  -0.005  0.00  0.00    -0.472 OA
BRANCH  22  23
ATOM     23  C   LIG    1        1.950  -1.365  -0.004  0.00  0.00    +0.272 C 
BRANCH  23  24
ATOM     24  C   LIG    1        3.444  -1.022  -0.017  0.00  0.00    +0.273 C 
BRANCH  24  25
ATOM     25  O   LIG    1        4.200  -2.233  -0.022  0.00  0.00    -0.459 OA
BRANCH  25  26
ATOM     26  C   LIG    1        5.582  -2.174  -0.016  0.00  0.00    +0.318 A 
ATOM     27  N   LIG    1        6.213  -0.962  -0.015  0.00  0.00    -0.202 NA
ATOM     28  C   LIG    1        7.572  -0.992  -0.007  0.00  0.00    +0.133 A 
ATOM     29  C   LIG    1        8.293  -2.188   0.001  0.00  0.00    +0.054 A 
ATOM     30 BR   LIG    1       10.195  -2.202   0.014  0.00  0.00    -0.047 Br
ATOM     31  C   LIG    1        7.555  -3.374  -0.000  0.00  0.00    +0.133 A 
ATOM     32  N   LIG    1        6.196  -3.386  -0.009  0.00  0.00    -0.202 NA
ENDBRANCH  25  26
ENDBRANCH  24  25
ENDBRANCH  23  24
ENDBRANCH  22  23
ENDBRANCH   5  22
TORSDOF 9
