REMARK  Name = DB15302
REMARK                            x       y       z     vdW  Elec       q    Type
REMARK                         _______ _______ _______ _____ _____    ______ ____
ROOT
ATOM      1  C   LIG    1        0.063  -0.023  -0.016  0.00  0.00    +0.174 C 
ENDROOT
BRANCH   1   3
ATOM      2  C   LIG    1       -2.099  -0.672   1.279  0.00  0.00    +0.040 C 
ATOM      3  C   LIG    1       -0.559  -0.669   1.258  0.00  0.00    +0.142 C 
BRANCH   3   4
ATOM      4  O   LIG    1       -0.097  -0.029   2.434  0.00  0.00    -0.389 OA
ATOM      5  H   LIG    1       -0.353   0.896   2.397  0.00  0.00    +0.210 HD
ENDBRANCH   3   4
ENDBRANCH   1   3
BRANCH   1   6
ATOM      6  O   LIG    1       -0.458   1.283  -0.213  0.00  0.00    -0.387 OA
ATOM      7  H   LIG    1       -1.415   1.225  -0.258  0.00  0.00    +0.210 HD
ENDBRANCH   1   6
BRANCH   1   8
ATOM      8  C   LIG    1        1.620   0.035  -0.040  0.00  0.00    +0.186 C 
BRANCH   8   9
ATOM      9  C   LIG    1        2.196   0.596  -1.373  0.00  0.00    +0.259 C 
ATOM     10  F   LIG    1        1.891  -0.156  -2.433  0.00  0.00    -0.235 F 
BRANCH   9  11
ATOM     11  C   LIG    1        3.712   0.845  -1.391  0.00  0.00    +0.262 C 
ATOM     12  O   LIG    1        4.385   0.887  -0.361  0.00  0.00    -0.298 OA
ENDBRANCH   9  11
ENDBRANCH   8   9
BRANCH   8  13
ATOM     13  O   LIG    1        2.146  -1.262   0.202  0.00  0.00    -0.386 OA
ATOM     14  H   LIG    1        1.841  -1.558   1.063  0.00  0.00    +0.210 HD
ENDBRANCH   8  13
ENDBRANCH   1   8
TORSDOF 7
