REMARK  Name = DB15439
REMARK                            x       y       z     vdW  Elec       q    Type
REMARK                         _______ _______ _______ _____ _____    ______ ____
ROOT
ATOM      1  C   LIG    1        2.051  -1.515  -0.130  0.00  0.00    +0.124 C 
ATOM      2  C   LIG    1        3.104  -1.678  -1.218  0.00  0.00    +0.020 A 
ATOM      3  C   LIG    1        2.982  -1.521  -2.602  0.00  0.00    +0.129 A 
ATOM      4  F   LIG    1        1.788  -1.198  -3.150  0.00  0.00    -0.205 F 
ATOM      5  C   LIG    1        4.096  -1.694  -3.427  0.00  0.00    +0.039 A 
ATOM      6  C   LIG    1        5.333  -2.027  -2.873  0.00  0.00    +0.003 A 
ATOM      7  C   LIG    1        5.460  -2.198  -1.494  0.00  0.00    +0.010 A 
ATOM      8  C   LIG    1        4.344  -2.026  -0.676  0.00  0.00    +0.008 A 
ATOM      9  C   LIG    1        4.145  -2.179   0.773  0.00  0.00    +0.069 A 
ATOM     10  C   LIG    1        4.684  -2.500   2.013  0.00  0.00    +0.138 A 
ATOM     11  N   LIG    1        3.780  -2.476   2.979  0.00  0.00    -0.243 NA
ATOM     12  C   LIG    1        2.666  -2.132   2.378  0.00  0.00    +0.200 A 
ATOM     13  N   LIG    1        2.835  -1.897   1.036  0.00  0.00    -0.322 N 
ENDROOT
BRANCH   1  14
ATOM     14  C   LIG    1        1.485  -0.069  -0.043  0.00  0.00    +0.061 C 
BRANCH  14  15
ATOM     15  C   LIG    1        0.118   0.097   0.676  0.00  0.00    +0.120 C 
BRANCH  15  16
ATOM     16  C   LIG    1       -0.579   1.474   0.429  0.00  0.00    +0.018 C 
ATOM     17  C   LIG    1       -1.830   1.687   1.325  0.00  0.00    +0.008 C 
ATOM     18  C   LIG    1       -2.432   3.095   1.152  0.00  0.00    +0.031 C 
ATOM     19  C   LIG    1       -2.775   3.412  -0.321  0.00  0.00    +0.115 C 
ATOM     20  C   LIG    1       -1.629   3.055  -1.296  0.00  0.00    +0.031 C 
ATOM     21  C   LIG    1       -1.054   1.647  -1.038  0.00  0.00    +0.008 C 
BRANCH  19  22
ATOM     22  O   LIG    1       -3.148   4.767  -0.463  0.00  0.00    -0.392 OA
ATOM     23  H   LIG    1       -4.072   4.805  -0.719  0.00  0.00    +0.210 HD
ENDBRANCH  19  22
ENDBRANCH  15  16
BRANCH  15  24
ATOM     24  O   LIG    1        0.330  -0.086   2.061  0.00  0.00    -0.391 OA
ATOM     25  H   LIG    1       -0.510   0.022   2.515  0.00  0.00    +0.210 HD
ENDBRANCH  15  24
ENDBRANCH  14  15
ENDBRANCH   1  14
TORSDOF 5
