REMARK  Name = DB15242
REMARK                            x       y       z     vdW  Elec       q    Type
REMARK                         _______ _______ _______ _____ _____    ______ ____
ROOT
ATOM      1  N   LIG    1        1.398   0.132   0.049  0.00  0.00    -0.312 N 
ATOM      2  C   LIG    1        2.168  -0.626  -0.828  0.00  0.00    +0.058 A 
ATOM      3  C   LIG    1        1.790  -1.480  -1.877  0.00  0.00    +0.072 A 
ATOM      4  C   LIG    1        2.804  -2.103  -2.623  0.00  0.00    +0.132 A 
ATOM      5  C   LIG    1        4.141  -1.856  -2.330  0.00  0.00    +0.047 A 
ATOM      6  C   LIG    1        4.523  -1.005  -1.298  0.00  0.00    +0.014 A 
ATOM      7  C   LIG    1        3.536  -0.383  -0.515  0.00  0.00    +0.012 A 
ATOM      8  C   LIG    1        3.559   0.521   0.603  0.00  0.00    +0.051 A 
ATOM      9  C   LIG    1        2.236   0.821   0.919  0.00  0.00    +0.033 A 
ATOM     10  C   LIG    1        1.683   1.705   2.028  0.00  0.00    +0.064 C 
ENDROOT
BRANCH   1  15
ATOM     11  C   LIG    1       -2.146  -1.017   0.058  0.00  0.00    +0.124 A 
ATOM     12  C   LIG    1       -2.810   0.218  -0.021  0.00  0.00    +0.046 A 
ATOM     13  C   LIG    1       -2.088   1.410  -0.068  0.00  0.00    +0.006 A 
ATOM     14  C   LIG    1       -0.695   1.386  -0.035  0.00  0.00    +0.026 A 
ATOM     15  C   LIG    1       -0.017   0.165   0.056  0.00  0.00    +0.050 A 
ATOM     16  C   LIG    1       -0.750  -1.027   0.100  0.00  0.00    +0.071 A 
BRANCH  11  17
ATOM     17  O   LIG    1       -2.775  -2.250   0.103  0.00  0.00    -0.478 OA
BRANCH  17  18
ATOM     18  C   LIG    1       -4.194  -2.373  -0.106  0.00  0.00    +0.281 C 
BRANCH  18  20
ATOM     19  C   LIG    1       -4.421  -4.053   1.834  0.00  0.00    +0.008 C 
ATOM     20  C   LIG    1       -4.619  -3.796   0.333  0.00  0.00    +0.053 C 
ENDBRANCH  18  20
BRANCH  18  21
ATOM     21  C   LIG    1       -4.561  -2.141  -1.601  0.00  0.00    +0.346 C 
ATOM     22  O   LIG    1       -5.705  -1.691  -1.840  0.00  0.00    -0.247 OA
BRANCH  21  23
ATOM     23  O   LIG    1       -3.717  -2.420  -2.486  0.00  0.00    -0.478 OA
ATOM     24  H   LIG    1       -3.924  -2.285  -3.390  0.00  0.00    +0.295 HD
ENDBRANCH  21  23
ENDBRANCH  18  21
ENDBRANCH  17  18
ENDBRANCH  11  17
ENDBRANCH   1  15
BRANCH   8  25
ATOM     25  C   LIG    1        4.753   1.063   1.264  0.00  0.00    +0.195 C 
ATOM     26  O   LIG    1        4.791   2.269   1.514  0.00  0.00    -0.287 OA
BRANCH  25  27
ATOM     27  C   LIG    1        5.897   0.156   1.621  0.00  0.00    +0.023 A 
ATOM     28  C   LIG    1        5.738  -1.234   1.714  0.00  0.00    +0.015 A 
ATOM     29  C   LIG    1        6.813  -2.046   2.064  0.00  0.00    +0.046 A 
ATOM     30  C   LIG    1        8.060  -1.492   2.348  0.00  0.00    +0.120 A 
ATOM     31  C   LIG    1        8.218  -0.100   2.285  0.00  0.00    +0.046 A 
ATOM     32  C   LIG    1        7.144   0.713   1.934  0.00  0.00    +0.015 A 
BRANCH  30  33
ATOM     33  O   LIG    1        9.067  -2.377   2.682  0.00  0.00    -0.495 OA
ATOM     34  C   LIG    1       10.367  -1.873   2.971  0.00  0.00    +0.277 C 
ENDBRANCH  30  33
ENDBRANCH  25  27
ENDBRANCH   8  25
BRANCH   4  35
ATOM     35  O   LIG    1        2.570  -2.972  -3.674  0.00  0.00    -0.406 OA
BRANCH  35  36
ATOM     36  C   LIG    1        1.239  -3.357  -4.022  0.00  0.00    +0.575 C 
ATOM     37  F   LIG    1        0.520  -2.318  -4.450  0.00  0.00    -0.133 F 
ATOM     38  F   LIG    1        0.625  -3.977  -3.011  0.00  0.00    -0.133 F 
ATOM     39  F   LIG    1        1.330  -4.225  -5.028  0.00  0.00    -0.133 F 
ENDBRANCH  35  36
ENDBRANCH   4  35
TORSDOF 11
