REMARK  Name = DB15339
REMARK                            x       y       z     vdW  Elec       q    Type
REMARK                         _______ _______ _______ _____ _____    ______ ____
ROOT
ATOM      1  C   LIG    1        1.930  -0.497   1.113  0.00  0.00    +0.180 C 
ATOM      2  O   LIG    1        1.202  -1.278   1.734  0.00  0.00    -0.290 OA
ENDROOT
BRANCH   1   3
ATOM      3  C   LIG    1        3.265  -0.093   1.678  0.00  0.00    +0.019 A 
ATOM      4  C   LIG    1        3.653  -0.564   2.943  0.00  0.00    +0.011 A 
ATOM      5  C   LIG    1        4.886  -0.209   3.485  0.00  0.00    +0.001 A 
ATOM      6  C   LIG    1        5.743   0.619   2.766  0.00  0.00    +0.000 A 
ATOM      7  C   LIG    1        5.379   1.092   1.509  0.00  0.00    +0.001 A 
ATOM      8  C   LIG    1        4.146   0.738   0.967  0.00  0.00    +0.011 A 
ENDBRANCH   1   3
BRANCH   1   9
ATOM      9  C   LIG    1        1.471   0.036  -0.250  0.00  0.00    +0.122 C 
ATOM     10  C   LIG    1        2.093  -0.833  -1.362  0.00  0.00    +0.032 C 
BRANCH   9  12
ATOM     11  C   LIG    1       -0.636   1.133   0.423  0.00  0.00    +0.101 C 
ATOM     12  N   LIG    1       -0.007   0.088  -0.373  0.00  0.00    -0.310 NA
ATOM     13  H   LIG    1       -0.278   0.192  -1.341  0.00  0.00    +0.122 HD
ENDBRANCH   9  12
ENDBRANCH   1   9
TORSDOF 3
