REMARK  Name = DB15779
REMARK                            x       y       z     vdW  Elec       q    Type
REMARK                         _______ _______ _______ _____ _____    ______ ____
ROOT
ATOM      1  N   LIG    1       -0.544  -0.869  -0.136  0.00  0.00    -0.284 N 
ATOM      2  H   LIG    1        0.070  -1.312  -0.804  0.00  0.00    +0.155 HD
ATOM      3  C   LIG    1       -0.073   0.210   0.528  0.00  0.00    +0.231 C 
ATOM      4  O   LIG    1       -0.749   0.866   1.323  0.00  0.00    -0.274 OA
ENDROOT
BRANCH   1   5
ATOM      5  C   LIG    1       -1.857  -1.373  -0.069  0.00  0.00    +0.040 A 
ATOM      6  C   LIG    1       -2.593  -1.432  -1.267  0.00  0.00    -0.029 A 
ATOM      7  C   LIG    1       -2.004  -0.969  -2.597  0.00  0.00    +0.045 C 
ATOM      8  C   LIG    1       -3.902  -1.912  -1.250  0.00  0.00    +0.009 A 
ATOM      9  C   LIG    1       -4.494  -2.340  -0.062  0.00  0.00    -0.036 A 
ATOM     10  C   LIG    1       -5.930  -2.842  -0.092  0.00  0.00    +0.045 C 
ATOM     11  C   LIG    1       -3.760  -2.310   1.131  0.00  0.00    +0.025 A 
ATOM     12 BR   LIG    1       -4.587  -2.904   2.754  0.00  0.00    -0.050 Br
ATOM     13  C   LIG    1       -2.431  -1.847   1.135  0.00  0.00    -0.015 A 
ATOM     14  C   LIG    1       -1.619  -1.924   2.432  0.00  0.00    +0.047 C 
ENDBRANCH   1   5
BRANCH   3  15
ATOM     15  C   LIG    1        1.423   0.561   0.368  0.00  0.00    +0.181 C 
BRANCH  15  16
ATOM     16  N   LIG    1        1.959   0.173  -0.945  0.00  0.00    -0.274 NA
BRANCH  16  17
ATOM     17  C   LIG    1        3.378  -0.218  -0.972  0.00  0.00    +0.206 C 
BRANCH  17  18
ATOM     18  C   LIG    1        3.587  -1.596  -0.320  0.00  0.00    +0.319 C 
ATOM     19  O   LIG    1        4.462  -1.807   0.516  0.00  0.00    -0.250 OA
BRANCH  18  20
ATOM     20  O   LIG    1        2.731  -2.546  -0.803  0.00  0.00    -0.480 OA
ATOM     21  H   LIG    1        2.876  -3.406  -0.402  0.00  0.00    +0.295 HD
ENDBRANCH  18  20
ENDBRANCH  17  18
ENDBRANCH  16  17
BRANCH  16  22
ATOM     22  C   LIG    1        1.545   0.992  -2.102  0.00  0.00    +0.206 C 
BRANCH  22  23
ATOM     23  C   LIG    1        2.119   2.420  -2.056  0.00  0.00    +0.319 C 
ATOM     24  O   LIG    1        1.479   3.385  -1.643  0.00  0.00    -0.250 OA
BRANCH  23  25
ATOM     25  O   LIG    1        3.395   2.478  -2.535  0.00  0.00    -0.480 OA
ATOM     26  H   LIG    1        3.754   3.368  -2.510  0.00  0.00    +0.295 HD
ENDBRANCH  23  25
ENDBRANCH  22  23
ENDBRANCH  16  22
ENDBRANCH  15  16
ENDBRANCH   3  15
TORSDOF 9
