REMARK  Name = DB15932
REMARK                            x       y       z     vdW  Elec       q    Type
REMARK                         _______ _______ _______ _____ _____    ______ ____
ROOT
ATOM      1  N   LIG    1       -0.266   0.444   0.511  0.00  0.00    -0.325 N 
ATOM      2  C   LIG    1       -0.902  -0.760   0.257  0.00  0.00    +0.094 A 
ATOM      3  N   LIG    1       -2.192  -0.620   0.047  0.00  0.00    -0.234 NA
ATOM      4  C   LIG    1       -2.429   0.723   0.151  0.00  0.00    +0.089 A 
ATOM      5  C   LIG    1       -3.637   1.421   0.012  0.00  0.00    +0.030 A 
ATOM      6  C   LIG    1       -3.614   2.809   0.156  0.00  0.00    +0.002 A 
ATOM      7  C   LIG    1       -2.427   3.489   0.430  0.00  0.00    +0.002 A 
ATOM      8  C   LIG    1       -1.208   2.821   0.576  0.00  0.00    +0.028 A 
ATOM      9  C   LIG    1       -1.234   1.428   0.435  0.00  0.00    +0.069 A 
ENDROOT
BRANCH   1  10
ATOM     10  C   LIG    1        1.162   0.663   0.748  0.00  0.00    +0.158 C 
BRANCH  10  11
ATOM     11  C   LIG    1        1.922   1.251  -0.440  0.00  0.00    -0.028 A 
ATOM     12  C   LIG    1        1.648   0.837  -1.749  0.00  0.00    +0.007 A 
ATOM     13  C   LIG    1        2.361   1.375  -2.816  0.00  0.00    +0.020 A 
ATOM     14  C   LIG    1        3.355   2.323  -2.575  0.00  0.00    +0.041 A 
ATOM     15 CL   LIG    1        4.240   2.991  -3.898  0.00  0.00    -0.084 Cl
ATOM     16  C   LIG    1        3.641   2.733  -1.275  0.00  0.00    +0.020 A 
ATOM     17  C   LIG    1        2.926   2.195  -0.208  0.00  0.00    +0.007 A 
ENDBRANCH  10  11
ENDBRANCH   1  10
BRANCH   2  18
ATOM     18  C   LIG    1       -0.144  -2.087   0.220  0.00  0.00    -0.003 C 
BRANCH  18  19
ATOM     19  N   LIG    1       -1.072  -3.297  -0.040  0.00  0.00    +0.384 N 
ATOM     20  H   LIG    1       -1.713  -3.043  -0.779  0.00  0.00    -0.081 HD
ATOM     21  C   LIG    1       -1.903  -3.735   1.179  0.00  0.00    -0.078 C 
ATOM     22  C   LIG    1       -2.352  -5.144   0.809  0.00  0.00    -0.020 C 
ATOM     23  C   LIG    1       -1.197  -5.745   0.008  0.00  0.00    -0.020 C 
ATOM     24  C   LIG    1       -0.316  -4.576  -0.453  0.00  0.00    -0.078 C 
ENDBRANCH  18  19
ENDBRANCH   2  18
TORSDOF 4
