REMARK  Name = DB15873
REMARK                            x       y       z     vdW  Elec       q    Type
REMARK                         _______ _______ _______ _____ _____    ______ ____
ROOT
ATOM      1  CA  PHE A  1        2.066   0.901  -4.231  0.00  0.00    +0.163 C 
ATOM      2  N   PHE A  1        1.937   1.809  -3.084  0.00  0.00    -0.302 N 
ATOM      3  H   PHE A  1        2.823   2.239  -2.858  0.00  0.00    +0.150 HD
ATOM      4  C   PHE A  1        0.946   2.099  -2.218  0.00  0.00    +0.234 C 
ATOM      5  O   PHE A  1        1.181   2.798  -1.236  0.00  0.00    -0.274 OA
ATOM      6  CA  PHE A  1       -0.510   1.631  -2.445  0.00  0.00    +0.163 C 
ATOM      7  N   PHE A  1       -1.259   1.489  -1.190  0.00  0.00    -0.302 N 
ATOM      8  H   PHE A  1       -2.004   2.162  -1.095  0.00  0.00    +0.150 HD
ATOM      9  C   PHE A  1       -1.095   0.635  -0.165  0.00  0.00    +0.235 C 
ATOM     10  O   PHE A  1       -1.843   0.676   0.811  0.00  0.00    -0.274 OA
ATOM     11  CA  PHE A  1        0.026  -0.430  -0.203  0.00  0.00    +0.169 C 
ATOM     12  CB  PHE A  1       -0.482  -1.787   0.341  0.00  0.00    +0.112 C 
ATOM     13  SG  PHE A  1        0.467  -3.279  -0.076  0.00  0.00    -0.091 S 
ATOM     14  SG  CYS A  4        2.183  -3.190   1.017  0.00  0.00    -0.091 S 
ATOM     15  CB  CYS A  4        3.512  -3.129  -0.216  0.00  0.00    +0.112 C 
ATOM     16  CA  CYS A  4        4.913  -3.149   0.437  0.00  0.00    +0.169 C 
ATOM     17  N   CYS A  4        5.298  -1.797   0.865  0.00  0.00    -0.302 N 
ATOM     18  H   CYS A  4        5.157  -1.660   1.855  0.00  0.00    +0.150 HD
ATOM     19  C   THR A  3        5.743  -0.720   0.182  0.00  0.00    +0.237 C 
ATOM     20  O   THR A  3        5.904   0.359   0.753  0.00  0.00    -0.274 OA
ATOM     21  CA  THR A  3        6.102  -0.822  -1.319  0.00  0.00    +0.187 C 
ATOM     22  N   THR A  3        5.752   0.431  -1.993  0.00  0.00    -0.300 N 
ATOM     23  H   THR A  3        5.976   1.256  -1.456  0.00  0.00    +0.150 HD
ATOM     24  C   LYS A  2        5.264   0.616  -3.233  0.00  0.00    +0.234 C 
ATOM     25  O   LYS A  2        5.145   1.748  -3.696  0.00  0.00    -0.274 OA
ATOM     26  CA  LYS A  2        4.839  -0.601  -4.094  0.00  0.00    +0.159 C 
ATOM     27  N   LYS A  2        3.506  -1.119  -3.746  0.00  0.00    -0.302 N 
ATOM     28  H   LYS A  2        3.535  -2.081  -3.442  0.00  0.00    +0.150 HD
ATOM     29  C   PHE A  1        2.276  -0.562  -3.783  0.00  0.00    +0.234 C 
ATOM     30  O   PHE A  1        1.284  -1.216  -3.472  0.00  0.00    -0.274 OA
ENDROOT
BRANCH  11  31
ATOM     31  N   PHE A  1        1.243   0.014   0.492  0.00  0.00    -0.302 N 
ATOM     32  H   PHE A  1        2.063   0.073  -0.093  0.00  0.00    +0.150 HD
ATOM     33  C   PHE A  1        1.367   0.358   1.789  0.00  0.00    +0.234 C 
ATOM     34  O   PHE A  1        0.448   0.342   2.607  0.00  0.00    -0.274 OA
BRANCH  33  35
ATOM     35  CA  PHE A  1        2.774   0.792   2.241  0.00  0.00    +0.163 C 
BRANCH  35  36
ATOM     36  N   PHE A  1        3.436  -0.248   3.042  0.00  0.00    -0.303 N 
ATOM     37  H   PHE A  1        4.224  -0.680   2.586  0.00  0.00    +0.149 HD
ATOM     38  C   UNK A  0        3.095  -0.713   4.263  0.00  0.00    +0.228 C 
ATOM     39  O   UNK A  0        2.163  -0.245   4.916  0.00  0.00    -0.274 OA
BRANCH  38  40
ATOM     40  C   UNK A  0        3.876  -1.902   4.872  0.00  0.00    +0.180 C 
BRANCH  40  41
ATOM     41  N   UNK A  0        5.101  -2.257   4.149  0.00  0.00    -0.292 NA
ATOM     42  C   UNK A  0        5.394  -3.699   4.227  0.00  0.00    +0.100 C 
ATOM     43  C   UNK A  0        5.687  -4.219   5.660  0.00  0.00    +0.100 C 
ATOM     44  N   UNK A  0        6.637  -5.339   5.681  0.00  0.00    -0.290 NA
ATOM     45  C   UNK A  0        8.029  -5.048   5.299  0.00  0.00    +0.100 C 
ATOM     46  C   UNK A  0        8.820  -4.145   6.284  0.00  0.00    +0.100 C 
ATOM     47  N   UNK A  0       10.145  -3.703   5.809  0.00  0.00    -0.290 NA
ATOM     48  C   UNK A  0       10.094  -2.767   4.674  0.00  0.00    +0.100 C 
ATOM     49  C   UNK A  0        9.484  -1.388   5.033  0.00  0.00    +0.100 C 
ATOM     50  N   UNK A  0        8.624  -0.842   3.980  0.00  0.00    -0.290 NA
ATOM     51  C   UNK A  0        7.448  -1.571   3.509  0.00  0.00    +0.100 C 
ATOM     52  C   UNK A  0        6.250  -1.388   4.467  0.00  0.00    +0.100 C 
BRANCH  44  53
ATOM     53  C   UNK A  0        6.462  -6.327   6.770  0.00  0.00    +0.205 C 
BRANCH  53  54
ATOM     54  C   UNK A  0        6.567  -5.859   8.252  0.00  0.00    +0.319 C 
ATOM     55  O   UNK A  0        6.610  -4.644   8.555  0.00  0.00    -0.250 OA
BRANCH  54  56
ATOM     56  O   UNK A  0        6.568  -6.778   9.101  0.00  0.00    -0.480 OA
ATOM     57  H   UNK A  0        6.534  -7.673   8.823  0.00  0.00    +0.295 HD
ENDBRANCH  54  56
ENDBRANCH  53  54
ENDBRANCH  44  53
BRANCH  47  58
ATOM     58  C   UNK A  0       11.026  -4.859   5.536  0.00  0.00    +0.205 C 
BRANCH  58  59
ATOM     59  C   UNK A  0       12.550  -4.559   5.526  0.00  0.00    +0.319 C 
ATOM     60  O   UNK A  0       13.272  -5.429   4.987  0.00  0.00    -0.250 OA
BRANCH  59  61
ATOM     61  O   UNK A  0       12.999  -3.521   6.068  0.00  0.00    -0.480 OA
ATOM     62  H   UNK A  0       12.411  -2.904   6.457  0.00  0.00    +0.295 HD
ENDBRANCH  59  61
ENDBRANCH  58  59
ENDBRANCH  47  58
BRANCH  50  63
ATOM     63  C   UNK A  0        8.713   0.588   3.673  0.00  0.00    +0.205 C 
BRANCH  63  64
ATOM     64  C   UNK A  0        9.602   0.846   2.444  0.00  0.00    +0.319 C 
ATOM     65  O   UNK A  0       10.230  -0.018   1.832  0.00  0.00    -0.250 OA
BRANCH  64  66
ATOM     66  O   UNK A  0        9.605   2.172   2.126  0.00  0.00    -0.480 OA
ATOM     67  H   UNK A  0       10.161   2.362   1.367  0.00  0.00    +0.295 HD
ENDBRANCH  64  66
ENDBRANCH  63  64
ENDBRANCH  50  63
ENDBRANCH  40  41
ENDBRANCH  38  40
ENDBRANCH  35  36
BRANCH  35  68
ATOM     68  CB  PHE A  1        2.797   2.161   2.967  0.00  0.00    +0.067 C 
BRANCH  68  69
ATOM     69  CG  PHE A  1        2.282   3.349   2.168  0.00  0.00    -0.045 A 
ATOM     70  CD2 PHE A  1        0.916   3.706   2.204  0.00  0.00    +0.004 A 
ATOM     71  CE2 PHE A  1        0.450   4.753   1.419  0.00  0.00    +0.000 A 
ATOM     72  CZ  PHE A  1        1.319   5.439   0.581  0.00  0.00    +0.000 A 
ATOM     73  CE1 PHE A  1        2.656   5.071   0.501  0.00  0.00    +0.000 A 
ATOM     74  CD1 PHE A  1        3.140   4.021   1.272  0.00  0.00    +0.004 A 
ENDBRANCH  68  69
ENDBRANCH  35  68
ENDBRANCH  33  35
ENDBRANCH  11  31
BRANCH  16  75
ATOM     75  C   CYS A  4        5.995  -3.923  -0.337  0.00  0.00    +0.235 C 
ATOM     76  N   THR A  5        7.118  -4.182   0.353  0.00  0.00    -0.299 N 
ATOM     77  H   THR A  5        7.191  -3.883   1.316  0.00  0.00    +0.150 HD
ATOM     78  O   CYS A  4        5.814  -4.240  -1.513  0.00  0.00    -0.274 OA
BRANCH  76  79
ATOM     79  CA  THR A  5        8.278  -4.910  -0.168  0.00  0.00    +0.210 C 
BRANCH  79  80
ATOM     80  CB  THR A  5        9.522  -4.700   0.740  0.00  0.00    +0.143 C 
ATOM     81  CG2 THR A  5        9.912  -3.223   0.913  0.00  0.00    +0.040 C 
BRANCH  80  82
ATOM     82  OG1 THR A  5        9.369  -5.289   2.018  0.00  0.00    -0.390 OA
ATOM     83  HG1 THR A  5        9.288  -6.240   1.913  0.00  0.00    +0.210 HD
ENDBRANCH  80  82
ENDBRANCH  79  80
BRANCH  79  84
ATOM     84  C   THR A  5        8.003  -6.429  -0.274  0.00  0.00    +0.328 C 
ATOM     85  O   THR A  5        7.296  -7.054   0.491  0.00  0.00    -0.249 OA
BRANCH  84  86
ATOM     86  OXT THR A  5        8.678  -6.943  -1.344  0.00  0.00    -0.479 OA
ATOM     87  HXT THR A  5        8.531  -7.886  -1.447  0.00  0.00    +0.295 HD
ENDBRANCH  84  86
ENDBRANCH  79  84
ENDBRANCH  76  79
ENDBRANCH  16  75
BRANCH  21  88
ATOM     88  CB  THR A  3        7.641  -1.079  -1.420  0.00  0.00    +0.141 C 
ATOM     89  CG2 THR A  3        8.159  -1.313  -2.846  0.00  0.00    +0.040 C 
BRANCH  88  90
ATOM     90  OG1 THR A  3        8.408  -0.041  -0.836  0.00  0.00    -0.390 OA
ATOM     91  HG1 THR A  3        8.321   0.746  -1.378  0.00  0.00    +0.210 HD
ENDBRANCH  88  90
ENDBRANCH  21  88
BRANCH   1  92
ATOM     92  CB  PHE A  1        0.996   1.071  -5.332  0.00  0.00    +0.069 C 
BRANCH  92  96
ATOM     93  NE1 PHE A  1        1.447  -1.190  -8.208  0.00  0.00    -0.360 N 
ATOM     94  HE1 PHE A  1        1.279  -2.081  -8.654  0.00  0.00    +0.165 HD
ATOM     95  CD1 PHE A  1        0.920  -0.865  -6.976  0.00  0.00    +0.087 A 
ATOM     96  CG  PHE A  1        1.310   0.383  -6.629  0.00  0.00    -0.020 A 
ATOM     97  CD2 PHE A  1        2.153   0.856  -7.725  0.00  0.00    +0.003 A 
ATOM     98  CE3 PHE A  1        2.877   2.045  -7.980  0.00  0.00    +0.010 A 
ATOM     99  CZ3 PHE A  1        3.623   2.207  -9.165  0.00  0.00    +0.001 A 
ATOM    100  CH2 PHE A  1        3.667   1.178 -10.126  0.00  0.00    +0.002 A 
ATOM    101  CZ2 PHE A  1        2.962  -0.019  -9.903  0.00  0.00    +0.026 A 
ATOM    102  CE2 PHE A  1        2.220  -0.169  -8.718  0.00  0.00    +0.047 A 
ENDBRANCH  92  96
ENDBRANCH   1  92
BRANCH   6 103
ATOM    103  CB  PHE A  1       -1.307   2.650  -3.304  0.00  0.00    +0.067 C 
BRANCH 103 104
ATOM    104  CG  PHE A  1       -1.340   4.087  -2.795  0.00  0.00    -0.045 A 
ATOM    105  CD2 PHE A  1       -0.416   5.036  -3.284  0.00  0.00    +0.007 A 
ATOM    106  CE2 PHE A  1       -0.429   6.356  -2.796  0.00  0.00    +0.045 A 
ATOM    107  CZ  PHE A  1       -1.370   6.737  -1.819  0.00  0.00    +0.117 A 
ATOM    108  CE1 PHE A  1       -2.301   5.798  -1.336  0.00  0.00    +0.045 A 
ATOM    109  CD1 PHE A  1       -2.288   4.477  -1.825  0.00  0.00    +0.007 A 
BRANCH 107 110
ATOM    110  OH  PHE A  1       -1.377   8.014  -1.339  0.00  0.00    -0.507 OA
ATOM    111  HH  PHE A  1       -0.699   8.568  -1.732  0.00  0.00    +0.292 HD
ENDBRANCH 107 110
ENDBRANCH 103 104
ENDBRANCH   6 103
BRANCH  26 112
ATOM    112  CB  LYS A  2        4.984  -0.403  -5.627  0.00  0.00    +0.032 C 
BRANCH 112 113
ATOM    113  CG  LYS A  2        6.428  -0.148  -6.094  0.00  0.00    +0.003 C 
BRANCH 113 114
ATOM    114  CD  LYS A  2        6.534  -0.018  -7.622  0.00  0.00    +0.015 C 
BRANCH 114 115
ATOM    115  CE  LYS A  2        7.948   0.332  -8.111  0.00  0.00    +0.077 C 
BRANCH 115 116
ATOM    116  NZ  LYS A  2        8.867  -0.763  -7.868  0.00  0.00    -0.330 NA
ATOM    117  HZ1 LYS A  2        8.962  -0.909  -6.873  0.00  0.00    +0.118 HD
ATOM    118  HZ2 LYS A  2        9.785  -0.517  -8.209  0.00  0.00    +0.118 HD
ENDBRANCH 115 116
ENDBRANCH 114 115
ENDBRANCH 113 114
ENDBRANCH 112 113
ENDBRANCH  26 112
TORSDOF 34
