REMARK  Name = DB15086
REMARK                            x       y       z     vdW  Elec       q    Type
REMARK                         _______ _______ _______ _____ _____    ______ ____
ROOT
ATOM      1  C   LIG    1        3.732  -1.276  -0.000  0.00  0.00    +0.232 C 
ENDROOT
BRANCH   1   2
ATOM      2  C   LIG    1        2.197  -1.310   0.000  0.00  0.00    +0.041 C 
BRANCH   2   3
ATOM      3  C   LIG    1        1.576   0.098   0.000  0.00  0.00    +0.003 C 
BRANCH   3   4
ATOM      4  C   LIG    1        0.037   0.073   0.000  0.00  0.00    +0.000 C 
BRANCH   4   5
ATOM      5  C   LIG    1       -0.586   1.480   0.000  0.00  0.00    -0.000 C 
BRANCH   5   6
ATOM      6  C   LIG    1       -2.125   1.456   0.000  0.00  0.00    -0.000 C 
BRANCH   6   8
ATOM      7  C   LIG    1       -4.281   2.838   0.000  0.00  0.00    +0.004 C 
ATOM      8  C   LIG    1       -2.747   2.864   0.000  0.00  0.00    -0.003 C 
ENDBRANCH   6   8
ENDBRANCH   5   6
ENDBRANCH   4   5
ENDBRANCH   3   4
ENDBRANCH   2   3
ENDBRANCH   1   2
BRANCH   1   9
ATOM      9  O   LIG    1        4.235  -2.606   0.000  0.00  0.00    -0.461 OA
BRANCH   9  10
ATOM     10  C   LIG    1        5.569  -2.851   0.000  0.00  0.00    +0.349 C 
ATOM     11  O   LIG    1        6.429  -1.964   0.000  0.00  0.00    -0.244 OA
BRANCH  10  12
ATOM     12  C   LIG    1        5.892  -4.287   0.000  0.00  0.00    +0.128 C 
ATOM     13  C   LIG    1        7.173  -4.705   0.000  0.00  0.00    +0.036 C 
BRANCH  12  14
ATOM     14  C   LIG    1        4.817  -5.231   0.000  0.00  0.00    +0.106 C 
ATOM     15  N   LIG    1        3.962  -6.011   0.000  0.00  0.00    -0.191 NA
ENDBRANCH  12  14
ENDBRANCH  10  12
ENDBRANCH   9  10
ENDBRANCH   1   9
TORSDOF 10
