REMARK  Name = DB15120
REMARK                            x       y       z     vdW  Elec       q    Type
REMARK                         _______ _______ _______ _____ _____    ______ ____
ROOT
ATOM      1  C   LIG    1        1.921   0.509  -1.305  0.00  0.00    +0.131 A 
ATOM      2  C   LIG    1        2.297  -0.163  -2.466  0.00  0.00    +0.046 A 
ATOM      3  C   LIG    1        2.949   0.525  -3.487  0.00  0.00    +0.007 A 
ATOM      4  C   LIG    1        3.243   1.887  -3.362  0.00  0.00    -0.046 A 
ATOM      5  C   LIG    1        3.914   2.662  -4.495  0.00  0.00    +0.017 C 
ATOM      6  C   LIG    1        3.058   3.737  -5.204  0.00  0.00    -0.074 C 
ATOM      7  N   LIG    1        1.952   4.391  -4.339  0.00  0.00    +0.382 N 
ATOM      8  H   LIG    1        1.329   3.635  -4.090  0.00  0.00    -0.081 HD
ATOM      9  C   LIG    1        2.398   5.007  -2.990  0.00  0.00    -0.074 C 
ATOM     10  C   LIG    1        3.176   4.059  -2.048  0.00  0.00    +0.017 C 
ATOM     11  C   LIG    1        2.881   2.565  -2.179  0.00  0.00    -0.043 A 
ATOM     12  C   LIG    1        2.224   1.863  -1.162  0.00  0.00    +0.050 A 
ENDROOT
BRANCH   7  13
ATOM     13  C   LIG    1        1.100   5.385  -5.163  0.00  0.00    -0.069 C 
ATOM     14  C   LIG    1        0.299   4.817  -6.345  0.00  0.00    -0.015 C 
ATOM     15  C   LIG    1       -0.847   5.758  -5.951  0.00  0.00    -0.003 C 
ATOM     16  C   LIG    1       -0.227   5.858  -4.551  0.00  0.00    -0.015 C 
ENDBRANCH   7  13
BRANCH   1  17
ATOM     17  O   LIG    1        1.266  -0.167  -0.301  0.00  0.00    -0.438 OA
BRANCH  17  21
ATOM     18  C   LIG    1       -2.879  -0.076   0.047  0.00  0.00    +0.055 A 
ATOM     19  C   LIG    1       -2.192   0.584  -0.982  0.00  0.00    +0.138 A 
ATOM     20  N   LIG    1       -0.842   0.564  -1.113  0.00  0.00    -0.219 NA
ATOM     21  C   LIG    1       -0.113  -0.130  -0.191  0.00  0.00    +0.221 A 
ATOM     22  C   LIG    1       -0.715  -0.806   0.871  0.00  0.00    +0.069 A 
ATOM     23  C   LIG    1       -2.105  -0.775   0.991  0.00  0.00    +0.030 A 
BRANCH  18  26
ATOM     24  O   LIG    1       -4.807  -2.098   1.012  0.00  0.00    -0.275 OA
ATOM     25  C   LIG    1       -5.111  -0.995   0.556  0.00  0.00    +0.220 C 
ATOM     26  N   LIG    1       -4.290   0.007   0.124  0.00  0.00    -0.270 N 
ATOM     27  C   LIG    1       -5.054   1.136  -0.425  0.00  0.00    +0.114 C 
ATOM     28  C   LIG    1       -6.462   0.959   0.091  0.00  0.00    +0.029 C 
ATOM     29  C   LIG    1       -6.552  -0.520   0.368  0.00  0.00    +0.098 C 
ENDBRANCH  18  26
ENDBRANCH  17  21
ENDBRANCH   1  17
TORSDOF 4
