REMARK  Name = DB15177
REMARK                            x       y       z     vdW  Elec       q    Type
REMARK                         _______ _______ _______ _____ _____    ______ ____
ROOT
ATOM      1  C   LIG    1       -1.907   0.802  -0.127  0.00  0.00    +0.136 A 
ATOM      2  N   LIG    1       -0.585   0.719   0.191  0.00  0.00    -0.212 NA
ATOM      3  C   LIG    1        0.030  -0.492   0.277  0.00  0.00    +0.156 A 
ATOM      4  C   LIG    1       -0.676  -1.676   0.054  0.00  0.00    +0.049 A 
ATOM      5  C   LIG    1       -2.028  -1.600  -0.269  0.00  0.00    +0.020 A 
ATOM      6  C   LIG    1       -2.684  -0.362  -0.379  0.00  0.00    +0.078 A 
ENDROOT
BRANCH   1  13
ATOM      7  C   LIG    1       -3.108   5.194  -1.595  0.00  0.00    +0.009 C 
ATOM      8  C   LIG    1       -2.473   4.540  -0.357  0.00  0.00    +0.005 C 
ATOM      9  C   LIG    1       -3.489   4.097   0.693  0.00  0.00    +0.030 C 
ATOM     10  C   LIG    1       -3.025   2.704   1.162  0.00  0.00    +0.031 C 
ATOM     11  C   LIG    1       -1.992   2.838   2.315  0.00  0.00    +0.031 C 
ATOM     12  C   LIG    1       -4.237   1.910   1.704  0.00  0.00    +0.031 C 
ATOM     13  N   LIG    1       -2.422   2.112  -0.050  0.00  0.00    -0.309 N 
ATOM     14  C   LIG    1       -1.734   3.242  -0.689  0.00  0.00    +0.110 C 
ENDBRANCH   1  13
BRANCH   3  15
ATOM     15  N   LIG    1        1.415  -0.512   0.611  0.00  0.00    -0.218 N 
ATOM     16  N   LIG    1        2.096   0.628   0.857  0.00  0.00    -0.127 NA
ATOM     17  C   LIG    1        3.330   0.272   1.128  0.00  0.00    +0.234 A 
ATOM     18  C   LIG    1        3.493  -1.120   1.070  0.00  0.00    +0.088 A 
ATOM     19  C   LIG    1        2.246  -1.607   0.734  0.00  0.00    +0.120 A 
BRANCH  17  20
ATOM     20  O   LIG    1        4.246   1.252   1.418  0.00  0.00    -0.475 OA
BRANCH  20  21
ATOM     21  C   LIG    1        5.580   0.815   1.659  0.00  0.00    +0.231 C 
BRANCH  21  22
ATOM     22  C   LIG    1        6.487   2.038   1.882  0.00  0.00    +0.056 C 
BRANCH  22  23
ATOM     23  C   LIG    1        6.501   3.071   0.725  0.00  0.00    +0.069 C 
ATOM     24  C   LIG    1        6.837   4.503   1.109  0.00  0.00    +0.016 C 
ATOM     25  C   LIG    1        5.420   4.138   0.739  0.00  0.00    +0.016 C 
BRANCH  23  26
ATOM     26  C   LIG    1        6.997   2.565  -0.656  0.00  0.00    +0.396 C 
ATOM     27  F   LIG    1        6.158   1.671  -1.179  0.00  0.00    -0.170 F 
ATOM     28  F   LIG    1        8.190   1.980  -0.547  0.00  0.00    -0.170 F 
ATOM     29  F   LIG    1        7.123   3.542  -1.557  0.00  0.00    -0.170 F 
ENDBRANCH  23  26
ENDBRANCH  22  23
ENDBRANCH  21  22
ENDBRANCH  20  21
ENDBRANCH  17  20
ENDBRANCH   3  15
BRANCH   6  30
ATOM     30  C   LIG    1       -4.155  -0.378  -0.769  0.00  0.00    +0.266 C 
ATOM     31  N   LIG    1       -4.569   0.631  -1.503  0.00  0.00    -0.181 N 
ATOM     32  H   LIG    1       -3.944   1.349  -1.753  0.00  0.00    +0.177 HD
ATOM     33  O   LIG    1       -4.838  -1.336  -0.392  0.00  0.00    -0.268 OA
BRANCH  31  34
ATOM     34  S   LIG    1       -6.067   0.686  -1.980  0.00  0.00    +0.075 S 
ATOM     35  O   LIG    1       -7.048   0.665  -0.886  0.00  0.00    -0.150 OA
ATOM     36  O   LIG    1       -6.338  -0.154  -3.152  0.00  0.00    -0.150 OA
BRANCH  34  37
ATOM     37  C   LIG    1       -6.115   2.370  -2.604  0.00  0.00    +0.109 A 
ATOM     38  C   LIG    1       -6.551   3.412  -1.779  0.00  0.00    +0.029 A 
ATOM     39  C   LIG    1       -6.601   4.713  -2.270  0.00  0.00    +0.002 A 
ATOM     40  C   LIG    1       -6.200   4.972  -3.580  0.00  0.00    +0.000 A 
ATOM     41  C   LIG    1       -5.742   3.942  -4.399  0.00  0.00    +0.002 A 
ATOM     42  C   LIG    1       -5.695   2.640  -3.910  0.00  0.00    +0.029 A 
ENDBRANCH  34  37
ENDBRANCH  31  34
ENDBRANCH   6  30
TORSDOF 10
