REMARK  Name = DB15205
REMARK                            x       y       z     vdW  Elec       q    Type
REMARK                         _______ _______ _______ _____ _____    ______ ____
ROOT
ATOM      1  C   LIG    1       -0.223  -0.119   0.111  0.00  0.00    +0.185 C 
ENDROOT
BRANCH   1   9
ATOM      2  C   LIG    1       -5.700   4.747   3.906  0.00  0.00    +0.161 C 
ATOM      3  N   LIG    1       -4.619   3.930   3.358  0.00  0.00    -0.196 N 
ATOM      4  C   LIG    1       -3.693   4.414   2.503  0.00  0.00    +0.248 C 
ATOM      5  O   LIG    1       -3.598   5.547   2.026  0.00  0.00    -0.273 OA
ATOM      6  C   LIG    1       -2.736   3.244   2.261  0.00  0.00    +0.108 C 
ATOM      7  C   LIG    1       -2.662   2.861   0.747  0.00  0.00    +0.130 C 
ATOM      8  N   LIG    1       -2.089   1.502   0.619  0.00  0.00    -0.298 N 
ATOM      9  C   LIG    1       -0.811   1.321   0.185  0.00  0.00    +0.238 C 
ATOM     10  O   LIG    1       -0.095   2.265  -0.163  0.00  0.00    -0.273 OA
ATOM     11  C   LIG    1       -2.936   0.452   1.227  0.00  0.00    +0.114 C 
ATOM     12  C   LIG    1       -3.111   0.736   2.746  0.00  0.00    +0.072 C 
ATOM     13  C   LIG    1       -3.539   2.182   2.980  0.00  0.00    +0.055 C 
ATOM     14  N   LIG    1       -4.529   2.612   3.630  0.00  0.00    -0.186 NA
BRANCH   6  15
ATOM     15  C   LIG    1       -1.324   3.570   2.863  0.00  0.00    +0.059 C 
BRANCH  15  16
ATOM     16  C   LIG    1       -1.256   3.900   4.357  0.00  0.00    -0.046 A 
ATOM     17  C   LIG    1       -1.087   2.875   5.292  0.00  0.00    +0.003 A 
ATOM     18  C   LIG    1       -1.029   3.173   6.651  0.00  0.00    +0.000 A 
ATOM     19  C   LIG    1       -1.136   4.497   7.071  0.00  0.00    +0.000 A 
ATOM     20  C   LIG    1       -1.298   5.526   6.146  0.00  0.00    +0.000 A 
ATOM     21  C   LIG    1       -1.355   5.227   4.787  0.00  0.00    +0.003 A 
ENDBRANCH  15  16
ENDBRANCH   6  15
ENDBRANCH   1   9
BRANCH   1  22
ATOM     22  N   LIG    1        1.251  -0.162   0.126  0.00  0.00    -0.303 N 
ATOM     23  H   LIG    1        1.649  -0.464   1.003  0.00  0.00    +0.149 HD
ATOM     24  C   LIG    1        2.098   0.149  -0.877  0.00  0.00    +0.202 C 
ATOM     25  O   LIG    1        1.692   0.528  -1.980  0.00  0.00    -0.277 OA
BRANCH  24  26
ATOM     26  C   LIG    1        3.618  -0.011  -0.555  0.00  0.00    +0.001 C 
ATOM     27  C   LIG    1        3.976  -1.498  -0.312  0.00  0.00    -0.001 C 
ATOM     28  C   LIG    1        4.034   0.872   0.649  0.00  0.00    -0.001 C 
BRANCH  26  29
ATOM     29  N   LIG    1        4.460   0.457  -1.764  0.00  0.00    +0.387 N 
ATOM     30  H   LIG    1        4.239  -0.101  -2.577  0.00  0.00    -0.089 HD
ATOM     31  H   LIG    1        4.267   1.428  -1.966  0.00  0.00    -0.089 HD
ATOM     32  H   LIG    1        5.444   0.358  -1.562  0.00  0.00    -0.089 HD
ENDBRANCH  26  29
ENDBRANCH  24  26
ENDBRANCH   1  22
BRANCH   1  33
ATOM     33  C   LIG    1       -0.850  -0.934  -1.053  0.00  0.00    +0.192 C 
BRANCH  33  34
ATOM     34  O   LIG    1       -0.225  -2.212  -1.081  0.00  0.00    -0.373 OA
BRANCH  34  35
ATOM     35  C   LIG    1       -0.325  -2.890  -2.327  0.00  0.00    +0.195 C 
BRANCH  35  36
ATOM     36  C   LIG    1        0.423  -4.218  -2.277  0.00  0.00    -0.022 A 
ATOM     37  C   LIG    1        1.488  -4.413  -1.390  0.00  0.00    +0.006 A 
ATOM     38  C   LIG    1        2.165  -5.629  -1.369  0.00  0.00    +0.000 A 
ATOM     39  C   LIG    1        1.780  -6.648  -2.238  0.00  0.00    +0.000 A 
ATOM     40  C   LIG    1        0.725  -6.460  -3.128  0.00  0.00    +0.000 A 
ATOM     41  C   LIG    1        0.048  -5.244  -3.149  0.00  0.00    +0.006 A 
ENDBRANCH  35  36
ENDBRANCH  34  35
ENDBRANCH  33  34
ENDBRANCH   1  33
TORSDOF 10
