REMARK  Name = DB15422
REMARK                            x       y       z     vdW  Elec       q    Type
REMARK                         _______ _______ _______ _____ _____    ______ ____
ROOT
ATOM      1  C   LIG    1        1.745   0.355  -0.966  0.00  0.00    +0.186 C 
ATOM      2  O   LIG    1        2.204  -0.949  -1.327  0.00  0.00    -0.459 OA
ATOM      3  C   LIG    1        3.494  -1.353  -1.223  0.00  0.00    +0.328 C 
ATOM      4  O   LIG    1        4.442  -0.626  -0.923  0.00  0.00    -0.249 OA
ATOM      5  C   LIG    1        3.711  -2.868  -1.485  0.00  0.00    +0.185 C 
ATOM      6  C   LIG    1        4.811  -3.148  -2.553  0.00  0.00    +0.034 C 
ATOM      7  C   LIG    1        4.343  -3.009  -4.015  0.00  0.00    +0.004 C 
ATOM      8  C   LIG    1        3.026  -3.762  -4.257  0.00  0.00    +0.019 C 
ATOM      9  C   LIG    1        1.945  -3.336  -3.247  0.00  0.00    +0.109 C 
ATOM     10  N   LIG    1        2.476  -3.612  -1.886  0.00  0.00    -0.282 N 
ATOM     11  C   LIG    1        2.016  -4.602  -1.063  0.00  0.00    +0.288 C 
ATOM     12  O   LIG    1        2.543  -4.965  -0.010  0.00  0.00    -0.267 OA
ATOM     13  C   LIG    1        0.660  -5.304  -1.478  0.00  0.00    +0.276 C 
ATOM     14  O   LIG    1        0.705  -6.292  -2.211  0.00  0.00    -0.281 OA
ATOM     15  C   LIG    1       -0.686  -4.712  -0.859  0.00  0.00    +0.240 C 
ATOM     16  O   LIG    1       -0.416  -4.684   0.527  0.00  0.00    -0.339 OA
ATOM     17  C   LIG    1       -1.423  -4.142   1.393  0.00  0.00    +0.125 C 
ATOM     18  C   LIG    1       -2.752  -4.904   1.215  0.00  0.00    +0.032 C 
ATOM     19  C   LIG    1       -3.139  -5.032  -0.262  0.00  0.00    +0.011 C 
ATOM     20  C   LIG    1       -0.922  -4.206   2.856  0.00  0.00    +0.067 C 
ATOM     21  C   LIG    1        0.208  -3.215   3.237  0.00  0.00    +0.146 C 
ATOM     22  C   LIG    1        0.788  -3.502   4.633  0.00  0.00    -0.046 C 
ATOM     23  C   LIG    1        1.601  -4.789   4.747  0.00  0.00    +0.041 C 
ATOM     24  C   LIG    1        0.670  -2.680   5.699  0.00  0.00    +0.008 C 
ATOM     25  C   LIG    1       -0.094  -1.363   5.805  0.00  0.00    +0.172 C 
ATOM     26  O   LIG    1        0.520  -0.378   4.962  0.00  0.00    -0.264 OA
ATOM     27  N   LIG    1       -0.267   0.841   5.032  0.00  0.00    -0.249 N 
ATOM     28  C   LIG    1       -0.008   1.527   6.313  0.00  0.00    +0.115 C 
ATOM     29  C   LIG    1       -0.554   0.586   7.422  0.00  0.00    +0.030 C 
ATOM     30  C   LIG    1        1.428   2.138   6.548  0.00  0.00    +0.012 C 
ATOM     31  C   LIG    1        2.600   1.135   6.533  0.00  0.00    +0.009 C 
ATOM     32  C   LIG    1        1.633   3.413   5.660  0.00  0.00    +0.016 C 
ATOM     33  C   LIG    1        3.057   3.954   5.324  0.00  0.00    +0.055 C 
ATOM     34  C   LIG    1        3.925   3.048   4.416  0.00  0.00    +0.015 C 
ATOM     35  C   LIG    1        3.005   5.405   4.775  0.00  0.00    +0.167 C 
ATOM     36  O   LIG    1        3.475   6.315   5.456  0.00  0.00    -0.294 OA
ATOM     37  C   LIG    1        2.410   5.745   3.373  0.00  0.00    +0.216 C 
ATOM     38  C   LIG    1        3.299   5.355   2.149  0.00  0.00    +0.176 C 
ATOM     39  C   LIG    1        2.771   5.813   0.777  0.00  0.00    -0.045 C 
ATOM     40  C   LIG    1        2.306   7.268   0.743  0.00  0.00    +0.041 C 
ATOM     41  C   LIG    1        2.727   5.092  -0.377  0.00  0.00    -0.015 C 
ATOM     42  C   LIG    1        3.164   3.668  -0.780  0.00  0.00    +0.075 C 
ATOM     43  C   LIG    1        3.946   2.817   0.245  0.00  0.00    +0.020 C 
ATOM     44  C   LIG    1        1.997   2.885  -1.441  0.00  0.00    +0.143 C 
ATOM     45  O   LIG    1        0.881   3.384  -1.598  0.00  0.00    -0.297 OA
ATOM     46  C   LIG    1       -0.094  -0.881   7.285  0.00  0.00    +0.040 C 
ATOM     47  C   LIG    1       -1.970  -5.556  -1.125  0.00  0.00    +0.054 C 
ATOM     48  C   LIG    1       -2.403  -5.666  -2.608  0.00  0.00    +0.013 C 
ATOM     49  C   LIG    1        2.258   1.455  -1.941  0.00  0.00    +0.119 C 
ENDROOT
BRANCH  27  50
ATOM     50  C   LIG    1       -0.576   1.464   3.837  0.00  0.00    +0.065 A 
ATOM     51  C   LIG    1       -1.883   1.913   3.628  0.00  0.00    +0.028 A 
ATOM     52  C   LIG    1       -2.199   2.646   2.487  0.00  0.00    +0.002 A 
ATOM     53  C   LIG    1       -1.199   2.954   1.569  0.00  0.00    +0.000 A 
ATOM     54  C   LIG    1        0.106   2.516   1.774  0.00  0.00    +0.002 A 
ATOM     55  C   LIG    1        0.413   1.749   2.891  0.00  0.00    +0.028 A 
ENDBRANCH  27  50
BRANCH   1  56
ATOM     56  C   LIG    1        0.193   0.261  -0.835  0.00  0.00    +0.027 C 
ATOM     57  C   LIG    1       -0.194  -0.653   0.347  0.00  0.00    +0.011 C 
BRANCH  56  58
ATOM     58  C   LIG    1       -0.518  -0.135  -2.161  0.00  0.00    +0.010 C 
BRANCH  58  63
ATOM     59  C   LIG    1       -4.308   0.750  -1.528  0.00  0.00    +0.147 C 
ATOM     60  C   LIG    1       -4.930   0.196  -2.843  0.00  0.00    +0.143 C 
ATOM     61  C   LIG    1       -4.135  -1.006  -3.411  0.00  0.00    +0.034 C 
ATOM     62  C   LIG    1       -2.619  -0.730  -3.476  0.00  0.00    +0.006 C 
ATOM     63  C   LIG    1       -2.060  -0.292  -2.104  0.00  0.00    -0.008 C 
ATOM     64  C   LIG    1       -2.789   1.007  -1.684  0.00  0.00    +0.037 C 
BRANCH  59  66
ATOM     65  C   LIG    1       -5.009   3.081  -1.726  0.00  0.00    +0.194 C 
ATOM     66  O   LIG    1       -5.010   1.869  -0.979  0.00  0.00    -0.377 OA
ENDBRANCH  59  66
BRANCH  60  67
ATOM     67  O   LIG    1       -6.279  -0.180  -2.645  0.00  0.00    -0.389 OA
ATOM     68  H   LIG    1       -6.693   0.470  -2.072  0.00  0.00    +0.210 HD
ENDBRANCH  60  67
ENDBRANCH  58  63
ENDBRANCH  56  58
ENDBRANCH   1  56
BRANCH  21  69
ATOM     69  O   LIG    1        1.228  -3.259   2.236  0.00  0.00    -0.375 OA
ATOM     70  C   LIG    1        2.286  -2.314   2.374  0.00  0.00    +0.194 C 
ENDBRANCH  21  69
BRANCH  37  71
ATOM     71  O   LIG    1        1.115   5.177   3.183  0.00  0.00    -0.369 OA
ATOM     72  C   LIG    1        0.046   5.875   3.811  0.00  0.00    +0.195 C 
ENDBRANCH  37  71
BRANCH  38  73
ATOM     73  O   LIG    1        4.597   5.905   2.288  0.00  0.00    -0.384 OA
ATOM     74  H   LIG    1        5.137   5.600   1.555  0.00  0.00    +0.210 HD
ENDBRANCH  38  73
BRANCH  15  75
ATOM     75  O   LIG    1       -0.876  -3.458  -1.391  0.00  0.00    -0.358 OA
ATOM     76  H   LIG    1       -1.544  -3.530  -2.076  0.00  0.00    +0.213 HD
ENDBRANCH  15  75
TORSDOF 10
