REMARK  Name = DB15396
REMARK                            x       y       z     vdW  Elec       q    Type
REMARK                         _______ _______ _______ _____ _____    ______ ____
ROOT
ATOM      1  N   LIG    1        1.529   0.160  -0.139  0.00  0.00    -0.281 N 
ATOM      2  H   LIG    1        1.919  -0.728   0.140  0.00  0.00    +0.155 HD
ATOM      3  C   LIG    1        2.422   1.106  -0.512  0.00  0.00    +0.248 C 
ATOM      4  O   LIG    1        2.118   2.226  -0.927  0.00  0.00    -0.270 OA
ENDROOT
BRANCH   3   5
ATOM      5  C   LIG    1        3.880   0.718  -0.379  0.00  0.00    +0.038 A 
ATOM      6  C   LIG    1        4.285  -0.625  -0.288  0.00  0.00    +0.030 A 
ATOM      7  C   LIG    1        5.635  -0.971  -0.165  0.00  0.00    +0.029 A 
ATOM      8  C   LIG    1        6.614   0.041  -0.137  0.00  0.00    -0.035 A 
ATOM      9  C   LIG    1        8.103  -0.269  -0.006  0.00  0.00    +0.045 C 
ATOM     10  C   LIG    1        6.216   1.377  -0.234  0.00  0.00    +0.005 A 
ATOM     11  C   LIG    1        4.869   1.711  -0.353  0.00  0.00    +0.013 A 
BRANCH   7  12
ATOM     12  C   LIG    1        5.981  -2.386  -0.069  0.00  0.00    -0.058 C 
ATOM     13  C   LIG    1        6.287  -3.565   0.022  0.00  0.00    -0.021 C 
BRANCH  13  14
ATOM     14  C   LIG    1        6.681  -4.960   0.142  0.00  0.00    +0.213 A 
ATOM     15  N   LIG    1        7.918  -5.419   0.554  0.00  0.00    -0.276 N 
ATOM     16  C   LIG    1        9.071  -4.784   0.950  0.00  0.00    +0.095 A 
ATOM     17  C   LIG    1       10.177  -5.546   1.317  0.00  0.00    +0.018 A 
ATOM     18  C   LIG    1       10.108  -6.938   1.279  0.00  0.00    +0.005 A 
ATOM     19  C   LIG    1        8.941  -7.593   0.877  0.00  0.00    +0.049 A 
ATOM     20  C   LIG    1        7.824  -6.822   0.508  0.00  0.00    +0.162 A 
ATOM     21  N   LIG    1        6.587  -7.168   0.088  0.00  0.00    -0.128 NA
ATOM     22  N   LIG    1        5.899  -5.986  -0.132  0.00  0.00    -0.120 NA
ENDBRANCH  13  14
ENDBRANCH   7  12
ENDBRANCH   3   5
BRANCH   1  26
ATOM     23  C   LIG    1       -2.690   0.092  -0.006  0.00  0.00    -0.052 A 
ATOM     24  C   LIG    1       -2.031   1.314  -0.179  0.00  0.00    +0.004 A 
ATOM     25  C   LIG    1       -0.641   1.379  -0.227  0.00  0.00    +0.023 A 
ATOM     26  C   LIG    1        0.122   0.210  -0.113  0.00  0.00    +0.034 A 
ATOM     27  C   LIG    1       -0.534  -1.011   0.060  0.00  0.00    +0.036 A 
ATOM     28  C   LIG    1       -1.934  -1.095   0.108  0.00  0.00    +0.058 A 
BRANCH  28  29
ATOM     29  C   LIG    1       -2.595  -2.472   0.284  0.00  0.00    +0.418 C 
ATOM     30  F   LIG    1       -3.312  -2.772  -0.799  0.00  0.00    -0.166 F 
ATOM     31  F   LIG    1       -3.399  -2.471   1.347  0.00  0.00    -0.166 F 
ATOM     32  F   LIG    1       -1.706  -3.451   0.461  0.00  0.00    -0.166 F 
ENDBRANCH  28  29
BRANCH  23  33
ATOM     33  C   LIG    1       -4.219   0.108   0.022  0.00  0.00    -0.042 C 
BRANCH  33  38
ATOM     34  C   LIG    1       -7.361   2.275   3.110  0.00  0.00    +0.104 C 
ATOM     35  N   LIG    1       -6.632   1.089   3.556  0.00  0.00    -0.309 NA
ATOM     36  C   LIG    1       -5.179   1.281   3.631  0.00  0.00    +0.065 C 
ATOM     37  C   LIG    1       -4.513   1.371   2.236  0.00  0.00    -0.063 C 
ATOM     38  N   LIG    1       -4.839   0.085   1.440  0.00  0.00    +0.384 N 
ATOM     39  H   LIG    1       -4.460  -0.702   1.948  0.00  0.00    -0.081 HD
ATOM     40  C   LIG    1       -6.373  -0.100   1.358  0.00  0.00    -0.063 C 
ATOM     41  C   LIG    1       -6.953  -0.124   2.794  0.00  0.00    +0.065 C 
ENDBRANCH  33  38
ENDBRANCH  23  33
ENDBRANCH   1  26
TORSDOF 7
