REMARK  Name = DB15295
REMARK                            x       y       z     vdW  Elec       q    Type
REMARK                         _______ _______ _______ _____ _____    ______ ____
ROOT
ATOM      1  C   LIG    1        2.201  -1.044   0.137  0.00  0.00    +0.137 A 
ATOM      2  O   LIG    1        1.590  -1.761  -0.846  0.00  0.00    -0.457 OA
ATOM      3  C   LIG    1        2.028  -3.037  -1.117  0.00  0.00    +0.139 A 
ATOM      4  C   LIG    1        1.378  -3.722  -2.143  0.00  0.00    +0.047 A 
ATOM      5  C   LIG    1        1.770  -5.021  -2.463  0.00  0.00    +0.004 A 
ATOM      6  C   LIG    1        2.808  -5.628  -1.757  0.00  0.00    +0.001 A 
ATOM      7  C   LIG    1        3.457  -4.939  -0.732  0.00  0.00    +0.015 A 
ATOM      8  C   LIG    1        3.077  -3.630  -0.398  0.00  0.00    +0.065 A 
ATOM      9  C   LIG    1        3.758  -2.872   0.699  0.00  0.00    +0.200 A 
ATOM     10  O   LIG    1        4.667  -3.381   1.359  0.00  0.00    -0.286 OA
ATOM     11  C   LIG    1        3.238  -1.498   0.895  0.00  0.00    +0.069 A 
ENDROOT
BRANCH  11  12
ATOM     12  C   LIG    1        3.837  -0.681   1.983  0.00  0.00    -0.008 A 
ATOM     13  C   LIG    1        3.051  -0.214   3.046  0.00  0.00    +0.047 A 
ATOM     14  C   LIG    1        3.613   0.559   4.063  0.00  0.00    +0.124 A 
ATOM     15  F   LIG    1        2.841   1.003   5.080  0.00  0.00    -0.205 F 
ATOM     16  C   LIG    1        4.971   0.874   4.030  0.00  0.00    +0.038 A 
ATOM     17  C   LIG    1        5.766   0.413   2.981  0.00  0.00    +0.003 A 
ATOM     18  C   LIG    1        5.202  -0.361   1.967  0.00  0.00    +0.009 A 
ENDBRANCH  11  12
BRANCH   1  19
ATOM     19  C   LIG    1        1.547   0.343   0.194  0.00  0.00    +0.138 C 
BRANCH  19  21
ATOM     20  C   LIG    1       -0.501   1.629   1.119  0.00  0.00    +0.006 C 
ATOM     21  C   LIG    1        0.103   0.266   0.741  0.00  0.00    +0.027 C 
ENDBRANCH  19  21
BRANCH  19  22
ATOM     22  N   LIG    1        1.603   1.107  -1.056  0.00  0.00    -0.317 N 
ATOM     23  H   LIG    1        0.731   1.407  -1.467  0.00  0.00    +0.148 HD
BRANCH  22  24
ATOM     24  C   LIG    1        2.807   1.503  -1.664  0.00  0.00    +0.150 A 
ATOM     25  N   LIG    1        4.007   1.193  -1.094  0.00  0.00    -0.219 NA
ATOM     26  C   LIG    1        5.135   1.607  -1.730  0.00  0.00    +0.225 A 
ATOM     27  N   LIG    1        5.229   2.313  -2.890  0.00  0.00    -0.216 NA
ATOM     28  C   LIG    1        4.032   2.599  -3.413  0.00  0.00    +0.163 A 
ATOM     29  N   LIG    1        3.724   3.288  -4.561  0.00  0.00    -0.329 N 
ATOM     30  H   LIG    1        4.338   3.715  -5.239  0.00  0.00    +0.168 HD
ATOM     31  C   LIG    1        2.350   3.301  -4.646  0.00  0.00    +0.198 A 
ATOM     32  N   LIG    1        1.747   2.685  -3.656  0.00  0.00    -0.231 NA
ATOM     33  C   LIG    1        2.776   2.234  -2.868  0.00  0.00    +0.147 A 
ENDBRANCH  22  24
ENDBRANCH  19  22
ENDBRANCH   1  19
TORSDOF 5
