REMARK  Name = DB15950
REMARK                            x       y       z     vdW  Elec       q    Type
REMARK                         _______ _______ _______ _____ _____    ______ ____
ROOT
ATOM      1  C   LIG    1       -0.036   0.120   0.041  0.00  0.00    +0.056 C 
ATOM      2  C   LIG    1       -0.663  -0.631   1.258  0.00  0.00    -0.018 C 
ATOM      3  C   LIG    1       -0.241  -0.133   2.680  0.00  0.00    +0.012 C 
ATOM      4  C   LIG    1       -0.432  -2.175   1.275  0.00  0.00    +0.012 C 
ATOM      5  C   LIG    1       -2.091  -0.215   0.833  0.00  0.00    +0.003 C 
ATOM      6  C   LIG    1       -2.223  -0.739  -0.621  0.00  0.00    +0.005 C 
ATOM      7  C   LIG    1       -2.027   1.331   0.782  0.00  0.00    +0.079 C 
ATOM      8  C   LIG    1       -0.803  -0.484  -1.178  0.00  0.00    +0.017 C 
ATOM      9  C   LIG    1       -0.604   1.557   0.242  0.00  0.00    +0.142 C 
ATOM     10  O   LIG    1       -0.042   2.638   0.077  0.00  0.00    -0.297 OA
ENDROOT
BRANCH   1  11
ATOM     11  C   LIG    1        1.525   0.112  -0.014  0.00  0.00    +0.212 C 
BRANCH  11  12
ATOM     12  S   LIG    1        2.260   0.408  -1.746  0.00  0.00    +0.081 S 
ATOM     13  O   LIG    1        1.944  -0.816  -2.490  0.00  0.00    -0.147 OA
ATOM     14  O   LIG    1        3.690   0.589  -1.473  0.00  0.00    -0.147 OA
BRANCH  12  15
ATOM     15  O   LIG    1        1.583   1.614  -2.236  0.00  0.00    -0.254 OA
ATOM     16  H   LIG    1        1.845   2.374  -1.694  0.00  0.00    +0.244 HD
ENDBRANCH  12  15
ENDBRANCH  11  12
ENDBRANCH   1  11
TORSDOF 3
