REMARK  Name = DB15445
REMARK                            x       y       z     vdW  Elec       q    Type
REMARK                         _______ _______ _______ _____ _____    ______ ____
ROOT
ATOM      1  N   LIG    1        1.442  -0.030   0.013  0.00  0.00    -0.301 N 
ATOM      2  H   LIG    1        1.852  -0.231   0.913  0.00  0.00    +0.150 HD
ATOM      3  C   LIG    1        2.263   0.147  -1.038  0.00  0.00    +0.246 C 
ATOM      4  O   LIG    1        1.889   0.339  -2.196  0.00  0.00    -0.270 OA
ENDROOT
BRANCH   3   5
ATOM      5  C   LIG    1        3.724   0.098  -0.704  0.00  0.00    +0.050 A 
ATOM      6  C   LIG    1        4.487   1.272  -0.553  0.00  0.00    +0.025 A 
ATOM      7  I   LIG    1        3.672   3.195  -0.783  0.00  0.00    -0.043 I 
ATOM      8  C   LIG    1        5.843   1.180  -0.233  0.00  0.00    +0.015 A 
ATOM      9  C   LIG    1        6.447  -0.065  -0.061  0.00  0.00    +0.001 A 
ATOM     10  C   LIG    1        5.695  -1.228  -0.206  0.00  0.00    +0.001 A 
ATOM     11  C   LIG    1        4.340  -1.148  -0.524  0.00  0.00    +0.014 A 
ENDBRANCH   3   5
BRANCH   1  12
ATOM     12  C   LIG    1       -0.030  -0.026  -0.042  0.00  0.00    +0.225 C 
BRANCH  12  13
ATOM     13  C   LIG    1       -0.687   1.381  -0.049  0.00  0.00    +0.322 C 
ATOM     14  O   LIG    1       -1.919   1.404  -0.269  0.00  0.00    -0.249 OA
BRANCH  13  15
ATOM     15  O   LIG    1       -0.001   2.406   0.179  0.00  0.00    -0.480 OA
ATOM     16  H   LIG    1       -0.052   2.827   1.014  0.00  0.00    +0.295 HD
ENDBRANCH  13  15
ENDBRANCH  12  13
ENDBRANCH   1  12
TORSDOF 4
