REMARK  Name = DB15346
REMARK                            x       y       z     vdW  Elec       q    Type
REMARK                         _______ _______ _______ _____ _____    ______ ____
ROOT
ATOM      1  O   LIG    1       -2.918  -2.387  -0.234  0.00  0.00    -0.244 OA
ATOM      2  C   LIG    1       -2.247  -1.359  -0.127  0.00  0.00    +0.352 A 
ATOM      3  N   LIG    1       -2.916  -0.142  -0.026  0.00  0.00    -0.291 N 
ATOM      4  C   LIG    1       -4.404  -0.118  -0.055  0.00  0.00    +0.131 C 
ATOM      5  C   LIG    1       -4.925   0.984   0.887  0.00  0.00    +0.057 C 
ATOM      6  C   LIG    1       -4.317   2.319   0.504  0.00  0.00    -0.035 A 
ATOM      7  C   LIG    1       -2.968   2.339   0.110  0.00  0.00    +0.002 A 
ATOM      8  C   LIG    1       -2.382   3.573  -0.223  0.00  0.00    +0.011 A 
ATOM      9  C   LIG    1       -3.121   4.753  -0.186  0.00  0.00    +0.017 A 
ATOM     10  C   LIG    1       -4.464   4.724   0.188  0.00  0.00    +0.025 A 
ATOM     11  C   LIG    1       -5.054   3.508   0.532  0.00  0.00    +0.021 A 
ATOM     12  C   LIG    1       -2.189   1.059   0.048  0.00  0.00    +0.059 A 
ATOM     13  C   LIG    1       -0.832   1.037   0.039  0.00  0.00    +0.093 A 
ATOM     14  C   LIG    1       -0.171  -0.228  -0.036  0.00  0.00    +0.221 A 
ATOM     15  N   LIG    1       -0.833  -1.335  -0.106  0.00  0.00    -0.158 NA
ENDROOT
BRANCH  10  16
ATOM     16  C   LIG    1       -5.244   5.952   0.215  0.00  0.00    -0.066 C 
ATOM     17  C   LIG    1       -5.905   6.979   0.222  0.00  0.00    -0.094 C 
BRANCH  17  18
ATOM     18  C   LIG    1       -6.710   8.213   0.216  0.00  0.00    +0.064 C 
ATOM     19  C   LIG    1       -7.754   8.383  -0.868  0.00  0.00    +0.017 C 
ATOM     20  C   LIG    1       -8.183   8.109   0.552  0.00  0.00    +0.017 C 
ENDBRANCH  17  18
ENDBRANCH  10  16
BRANCH  14  21
ATOM     21  O   LIG    1        1.209  -0.188  -0.026  0.00  0.00    -0.474 OA
BRANCH  21  22
ATOM     22  C   LIG    1        1.929  -1.424  -0.113  0.00  0.00    +0.264 C 
BRANCH  22  23
ATOM     23  C   LIG    1        3.436  -1.126  -0.053  0.00  0.00    +0.181 C 
ATOM     24  O   LIG    1        3.762  -0.613   1.240  0.00  0.00    -0.369 OA
ATOM     25  C   LIG    1        5.137  -0.252   1.364  0.00  0.00    +0.188 C 
ATOM     26  C   LIG    1        6.015  -1.491   1.082  0.00  0.00    +0.188 C 
ATOM     27  O   LIG    1        5.662  -2.048  -0.184  0.00  0.00    -0.375 OA
ATOM     28  C   LIG    1        4.283  -2.402  -0.266  0.00  0.00    +0.194 C 
ENDBRANCH  22  23
ENDBRANCH  21  22
ENDBRANCH  14  21
TORSDOF 5
