REMARK  Name = DB15106
REMARK                            x       y       z     vdW  Elec       q    Type
REMARK                         _______ _______ _______ _____ _____    ______ ____
ROOT
ATOM      1  N   LIG    1        3.390  -3.517  -2.301  0.00  0.00    -0.284 N 
ATOM      2  H   LIG    1        3.958  -3.966  -3.005  0.00  0.00    +0.155 HD
ENDROOT
BRANCH   1   7
ATOM      3  C   LIG    1        2.415   0.079  -1.989  0.00  0.00    -0.023 A 
ATOM      4  C   LIG    1        2.385   0.436  -3.339  0.00  0.00    +0.005 A 
ATOM      5  C   LIG    1        2.697  -0.505  -4.318  0.00  0.00    +0.002 A 
ATOM      6  C   LIG    1        3.030  -1.810  -3.951  0.00  0.00    +0.023 A 
ATOM      7  C   LIG    1        3.045  -2.189  -2.605  0.00  0.00    +0.034 A 
ATOM      8  C   LIG    1        2.745  -1.230  -1.627  0.00  0.00    +0.028 A 
BRANCH   3   9
ATOM      9  C   LIG    1        2.061   1.098  -0.920  0.00  0.00    +0.220 C 
BRANCH   9  10
ATOM     10  S   LIG    1        0.206   1.112  -0.562  0.00  0.00    +0.033 S 
ATOM     11  O   LIG    1       -0.489   1.634  -1.744  0.00  0.00    -0.158 OA
ATOM     12  O   LIG    1       -0.177  -0.187   0.001  0.00  0.00    -0.158 OA
BRANCH  10  13
ATOM     13  N   LIG    1        0.055   2.303   0.729  0.00  0.00    -0.196 NA
ATOM     14  H   LIG    1        0.664   2.032   1.507  0.00  0.00    +0.148 HD
BRANCH  13  15
ATOM     15  C   LIG    1       -1.298   2.557   1.274  0.00  0.00    +0.087 C 
BRANCH  15  16
ATOM     16  C   LIG    1       -2.201   3.370   0.318  0.00  0.00    -0.063 C 
BRANCH  16  18
ATOM     17  C   LIG    1       -4.213   1.746   0.252  0.00  0.00    -0.097 C 
ATOM     18  N   LIG    1       -3.099   2.453  -0.547  0.00  0.00    +0.377 N 
ATOM     19  H   LIG    1       -2.498   1.737  -0.934  0.00  0.00    -0.083 HD
ATOM     20  C   LIG    1       -3.692   3.218  -1.746  0.00  0.00    -0.097 C 
ENDBRANCH  16  18
ENDBRANCH  15  16
ENDBRANCH  13  15
ENDBRANCH  10  13
ENDBRANCH   9  10
ENDBRANCH   3   9
ENDBRANCH   1   7
BRANCH   1  21
ATOM     21  C   LIG    1        3.139  -4.330  -1.185  0.00  0.00    +0.223 A 
ATOM     22  N   LIG    1        3.776  -5.529  -1.185  0.00  0.00    -0.222 NA
ATOM     23  C   LIG    1        3.539  -6.351  -0.131  0.00  0.00    +0.119 A 
ATOM     24  C   LIG    1        2.681  -6.002   0.913  0.00  0.00    +0.087 A 
ATOM     25  C   LIG    1        2.055  -4.746   0.830  0.00  0.00    +0.225 A 
ATOM     26  N   LIG    1        2.280  -3.909  -0.216  0.00  0.00    -0.179 NA
BRANCH  25  27
ATOM     27  O   LIG    1        1.190  -4.232   1.775  0.00  0.00    -0.438 OA
BRANCH  27  28
ATOM     28  C   LIG    1        0.809  -4.986   2.858  0.00  0.00    +0.131 A 
ATOM     29  C   LIG    1        1.447  -4.795   4.083  0.00  0.00    +0.048 A 
ATOM     30  C   LIG    1        1.105  -5.531   5.217  0.00  0.00    +0.030 A 
ATOM     31  C   LIG    1        0.083  -6.476   5.076  0.00  0.00    +0.047 A 
ATOM     32  N   LIG    1       -0.479  -7.350   5.983  0.00  0.00    -0.358 N 
ATOM     33  H   LIG    1       -0.231  -7.459   6.956  0.00  0.00    +0.166 HD
ATOM     34  C   LIG    1       -1.471  -8.100   5.396  0.00  0.00    +0.014 A 
ATOM     35  C   LIG    1       -1.564  -7.714   4.072  0.00  0.00    +0.031 A 
ATOM     36  C   LIG    1       -2.235  -9.129   6.194  0.00  0.00    +0.063 C 
ATOM     37  C   LIG    1       -0.592  -6.688   3.840  0.00  0.00    +0.003 A 
ATOM     38  C   LIG    1       -0.216  -5.925   2.724  0.00  0.00    +0.056 A 
ENDBRANCH  27  28
ENDBRANCH  25  27
ENDBRANCH   1  21
TORSDOF 10
