REMARK  Name = DB15350
REMARK                            x       y       z     vdW  Elec       q    Type
REMARK                         _______ _______ _______ _____ _____    ______ ____
ROOT
ATOM      1  C   LIG    1        1.380   0.020  -0.147  0.00  0.00    +0.176 C 
ATOM      2  C   LIG    1        1.906  -0.676  -1.431  0.00  0.00    +0.176 C 
ATOM      3  C   LIG    1        3.450  -0.794  -1.431  0.00  0.00    +0.176 C 
ATOM      4  C   LIG    1        3.976  -1.489  -0.146  0.00  0.00    +0.176 C 
ATOM      5  C   LIG    1        3.450  -0.813   1.149  0.00  0.00    +0.176 C 
ATOM      6  C   LIG    1        1.904  -0.657   1.148  0.00  0.00    +0.176 C 
ENDROOT
BRANCH   1   7
ATOM      7  O   LIG    1       -0.035   0.126  -0.161  0.00  0.00    -0.386 OA
ATOM      8  H   LIG    1       -0.333   0.310   0.733  0.00  0.00    +0.210 HD
ENDBRANCH   1   7
BRANCH   2   9
ATOM      9  O   LIG    1        1.311  -1.948  -1.630  0.00  0.00    -0.386 OA
ATOM     10  H   LIG    1        0.385  -1.889  -1.385  0.00  0.00    +0.210 HD
ENDBRANCH   2   9
BRANCH   3  11
ATOM     11  O   LIG    1        4.045   0.479  -1.630  0.00  0.00    -0.386 OA
ATOM     12  H   LIG    1        4.971   0.419  -1.385  0.00  0.00    +0.210 HD
ENDBRANCH   3  11
BRANCH   4  13
ATOM     13  O   LIG    1        5.390  -1.595  -0.160  0.00  0.00    -0.386 OA
ATOM     14  H   LIG    1        5.688  -1.783   0.734  0.00  0.00    +0.210 HD
ENDBRANCH   4  13
BRANCH   5  15
ATOM     15  O   LIG    1        3.899  -1.504   2.304  0.00  0.00    -0.386 OA
ATOM     16  H   LIG    1        3.510  -2.382   2.306  0.00  0.00    +0.210 HD
ENDBRANCH   5  15
BRANCH   6  17
ATOM     17  O   LIG    1        1.454   0.032   2.304  0.00  0.00    -0.386 OA
ATOM     18  H   LIG    1        1.843   0.910   2.309  0.00  0.00    +0.210 HD
ENDBRANCH   6  17
TORSDOF 6
