REMARK  Name = DB15406
REMARK                            x       y       z     vdW  Elec       q    Type
REMARK                         _______ _______ _______ _____ _____    ______ ____
ROOT
ATOM      1  C   LIG    1       -0.502  -1.066  -0.557  0.00  0.00    +0.239 C 
ATOM      2  N   LIG    1        0.090   0.146  -0.347  0.00  0.00    -0.295 N 
ATOM      3  O   LIG    1       -1.692  -1.145  -0.877  0.00  0.00    -0.273 OA
ENDROOT
BRANCH   1   5
ATOM      4  C   LIG    1        1.330  -2.566  -1.579  0.00  0.00    +0.042 C 
ATOM      5  C   LIG    1        0.307  -2.398  -0.421  0.00  0.00    +0.112 C 
ATOM      6  N   LIG    1       -0.548  -3.609  -0.200  0.00  0.00    -0.283 N 
ATOM      7  C   LIG    1       -1.356  -4.308  -1.032  0.00  0.00    +0.249 C 
ATOM      8  O   LIG    1       -1.257  -4.227  -2.258  0.00  0.00    -0.270 OA
ATOM      9  C   LIG    1        0.188  -4.055   1.018  0.00  0.00    +0.112 C 
ATOM     10  C   LIG    1        0.835  -2.659   1.014  0.00  0.00    +0.054 C 
BRANCH   7  11
ATOM     11  C   LIG    1       -2.303  -5.228  -0.430  0.00  0.00    +0.052 A 
ATOM     12  C   LIG    1       -3.008  -5.071   0.821  0.00  0.00    +0.001 A 
ATOM     13  C   LIG    1       -3.019  -4.009   1.754  0.00  0.00    +0.010 A 
ATOM     14  C   LIG    1       -3.779  -4.102   2.918  0.00  0.00    +0.001 A 
ATOM     15  C   LIG    1       -4.552  -5.224   3.182  0.00  0.00    +0.001 A 
ATOM     16  C   LIG    1       -4.605  -6.283   2.283  0.00  0.00    +0.015 A 
ATOM     17  C   LIG    1       -3.850  -6.197   1.104  0.00  0.00    +0.020 A 
ATOM     18  S   LIG    1       -3.825  -7.380  -0.189  0.00  0.00    -0.096 S 
ATOM     19  C   LIG    1       -2.731  -6.371  -1.087  0.00  0.00    +0.059 A 
ENDBRANCH   7  11
ENDBRANCH   1   5
BRANCH   2  20
ATOM     20  C   LIG    1       -0.629   1.403  -0.635  0.00  0.00    +0.143 C 
BRANCH  20  21
ATOM     21  C   LIG    1       -0.205   2.073  -1.937  0.00  0.00    -0.029 A 
ATOM     22  C   LIG    1        0.312   3.372  -1.919  0.00  0.00    +0.025 A 
ATOM     23  C   LIG    1        0.698   3.991  -3.109  0.00  0.00    +0.041 A 
ATOM     24 CL   LIG    1        1.342   5.592  -3.080  0.00  0.00    -0.084 Cl
ATOM     25  C   LIG    1        0.564   3.315  -4.323  0.00  0.00    +0.020 A 
ATOM     26  C   LIG    1        0.043   2.022  -4.346  0.00  0.00    +0.002 A 
ATOM     27  C   LIG    1       -0.342   1.402  -3.157  0.00  0.00    +0.005 A 
ENDBRANCH  20  21
ENDBRANCH   2  20
BRANCH   2  28
ATOM     28  C   LIG    1        1.477   0.345   0.114  0.00  0.00    +0.109 C 
BRANCH  28  29
ATOM     29  C   LIG    1        1.587   0.897   1.549  0.00  0.00    +0.030 C 
BRANCH  29  30
ATOM     30  C   LIG    1        3.058   0.965   2.031  0.00  0.00    +0.122 C 
BRANCH  30  31
ATOM     31  C   LIG    1        3.254   1.458   3.486  0.00  0.00    +0.305 C 
ATOM     32  O   LIG    1        4.434   1.484   3.901  0.00  0.00    -0.251 OA
BRANCH  31  33
ATOM     33  O   LIG    1        2.264   1.805   4.173  0.00  0.00    -0.481 OA
ATOM     34  H   LIG    1        2.386   2.103   5.053  0.00  0.00    +0.295 HD
ENDBRANCH  31  33
ENDBRANCH  30  31
ENDBRANCH  29  30
ENDBRANCH  28  29
ENDBRANCH   2  28
TORSDOF 9
