REMARK  Name = DB15062
REMARK                            x       y       z     vdW  Elec       q    Type
REMARK                         _______ _______ _______ _____ _____    ______ ____
ROOT
ATOM      1  P   LIG    1        2.224   0.102   0.594  0.00  0.00    +0.389 P 
ATOM      2  O   LIG    1        2.456  -1.153  -0.173  0.00  0.00    -0.246 OA
ENDROOT
BRANCH   1   3
ATOM      3  S   LIG    1        2.913  -0.007   2.598  0.00  0.00    -0.058 S 
ATOM      4  H   LIG    1        2.366  -1.094   3.206  0.00  0.00    +0.114 HD
ENDBRANCH   1   3
BRANCH   1   5
ATOM      5  O   LIG    1        0.654   0.535   0.750  0.00  0.00    -0.292 OA
BRANCH   5  10
ATOM      6  C   LIG    1       -1.319   1.850   0.341  0.00  0.00    +0.199 C 
ATOM      7  C   LIG    1       -1.689   1.958   1.822  0.00  0.00    +0.255 C 
ATOM      8  O   LIG    1       -0.768   2.862   2.356  0.00  0.00    -0.346 OA
ATOM      9  C   LIG    1        0.483   2.788   1.670  0.00  0.00    +0.178 C 
ATOM     10  C   LIG    1        0.199   1.859   0.475  0.00  0.00    +0.193 C 
BRANCH   7  11
ATOM     11  N   LIG    1       -3.053   2.322   2.192  0.00  0.00    -0.271 N 
ATOM     12  C   LIG    1       -3.561   3.541   1.775  0.00  0.00    +0.331 A 
ATOM     13  O   LIG    1       -2.952   4.412   1.152  0.00  0.00    -0.246 OA
ATOM     14  N   LIG    1       -4.875   3.742   2.119  0.00  0.00    -0.275 N 
ATOM     15  H   LIG    1       -5.264   4.625   1.821  0.00  0.00    +0.173 HD
ATOM     16  C   LIG    1       -5.737   2.934   2.805  0.00  0.00    +0.254 A 
ATOM     17  O   LIG    1       -6.902   3.245   3.041  0.00  0.00    -0.268 OA
ATOM     18  C   LIG    1       -5.128   1.683   3.217  0.00  0.00    +0.088 A 
ATOM     19  C   LIG    1       -3.841   1.439   2.899  0.00  0.00    +0.098 A 
ENDBRANCH   7  11
BRANCH   6  21
ATOM     20  C   LIG    1       -3.150   0.698  -0.716  0.00  0.00    +0.194 C 
ATOM     21  O   LIG    1       -1.793   0.665  -0.297  0.00  0.00    -0.373 OA
ENDBRANCH   6  21
BRANCH   9  22
ATOM     22  C   LIG    1        0.927   4.205   1.258  0.00  0.00    +0.190 C 
BRANCH  22  23
ATOM     23  O   LIG    1        0.959   5.074   2.372  0.00  0.00    -0.392 OA
ATOM     24  H   LIG    1        1.276   5.933   2.084  0.00  0.00    +0.210 HD
ENDBRANCH  22  23
ENDBRANCH   9  22
ENDBRANCH   5  10
ENDBRANCH   1   5
BRANCH   1  25
ATOM     25  O   LIG    1        2.963   1.440   0.021  0.00  0.00    -0.298 OA
BRANCH  25  26
ATOM     26  C   LIG    1        3.442   1.513  -1.314  0.00  0.00    +0.205 C 
BRANCH  26  27
ATOM     27  C   LIG    1        4.914   1.953  -1.314  0.00  0.00    +0.175 C 
ATOM     28  C   LIG    1        5.859   1.119  -0.441  0.00  0.00    +0.150 C 
ATOM     29  C   LIG    1        6.891   2.138   0.014  0.00  0.00    +0.088 C 
ATOM     30  C   LIG    1        6.011   3.370   0.178  0.00  0.00    +0.225 C 
ATOM     31  O   LIG    1        4.993   3.266  -0.769  0.00  0.00    -0.348 OA
BRANCH  30  32
ATOM     32  N   LIG    1        5.423   3.635   1.553  0.00  0.00    -0.288 N 
ATOM     33  C   LIG    1        4.855   4.814   1.949  0.00  0.00    +0.167 A 
ATOM     34  N   LIG    1        4.736   5.976   1.258  0.00  0.00    -0.216 NA
ATOM     35  C   LIG    1        4.135   6.925   1.992  0.00  0.00    +0.225 A 
ATOM     36  N   LIG    1        3.671   6.860   3.248  0.00  0.00    -0.219 NA
ATOM     37  C   LIG    1        3.799   5.678   3.913  0.00  0.00    +0.147 A 
ATOM     38  C   LIG    1        4.415   4.596   3.243  0.00  0.00    +0.147 A 
ATOM     39  N   LIG    1        4.667   3.337   3.630  0.00  0.00    -0.231 NA
ATOM     40  C   LIG    1        5.246   2.789   2.591  0.00  0.00    +0.203 A 
BRANCH  37  41
ATOM     41  N   LIG    1        3.314   5.589   5.216  0.00  0.00    -0.341 N 
ATOM     42  H   LIG    1        2.860   6.389   5.631  0.00  0.00    +0.144 HD
ATOM     43  H   LIG    1        3.343   4.697   5.690  0.00  0.00    +0.144 HD
ENDBRANCH  37  41
ENDBRANCH  30  32
BRANCH  28  44
ATOM     44  O   LIG    1        6.446   0.032  -1.126  0.00  0.00    -0.389 OA
ATOM     45  H   LIG    1        5.761  -0.615  -1.315  0.00  0.00    +0.210 HD
ENDBRANCH  28  44
ENDBRANCH  26  27
ENDBRANCH  25  26
ENDBRANCH   1  25
TORSDOF 13
