REMARK  Name = DB15247
REMARK                            x       y       z     vdW  Elec       q    Type
REMARK                         _______ _______ _______ _____ _____    ______ ____
ROOT
ATOM      1  C   LIG    1        3.494  -0.361   0.408  0.00  0.00    +0.060 A 
ATOM      2  C   LIG    1        4.579  -0.828   1.201  0.00  0.00    -0.013 A 
ATOM      3  C   LIG    1        4.530  -1.328   2.634  0.00  0.00    +0.047 C 
ATOM      4  C   LIG    1        5.705  -0.859   0.375  0.00  0.00    +0.044 A 
ATOM      5  N   LIG    1        5.334  -0.330  -0.831  0.00  0.00    -0.358 N 
ATOM      6  H   LIG    1        5.961  -0.203  -1.612  0.00  0.00    +0.166 HD
ATOM      7  C   LIG    1        4.009   0.002  -0.845  0.00  0.00    +0.026 A 
ATOM      8  C   LIG    1        3.400   0.627  -2.084  0.00  0.00    +0.064 C 
ENDROOT
BRANCH   4   9
ATOM      9  C   LIG    1        7.085  -1.255   0.653  0.00  0.00    +0.039 C 
ATOM     10  C   LIG    1        8.095  -1.742  -0.110  0.00  0.00    +0.048 C 
ATOM     11  C   LIG    1        9.453  -2.080   0.308  0.00  0.00    +0.011 A 
ATOM     12  C   LIG    1       10.114  -2.010   1.538  0.00  0.00    +0.048 A 
ATOM     13  C   LIG    1       11.453  -2.408   1.620  0.00  0.00    +0.124 A 
ATOM     14  C   LIG    1       12.121  -2.870   0.481  0.00  0.00    +0.040 A 
ATOM     15  C   LIG    1       11.454  -2.938  -0.746  0.00  0.00    +0.027 A 
ATOM     16  F   LIG    1       12.103  -2.344   2.804  0.00  0.00    -0.205 F 
ATOM     17  C   LIG    1       10.120  -2.537  -0.805  0.00  0.00    +0.042 A 
ATOM     18  N   LIG    1        9.252  -2.510  -1.869  0.00  0.00    -0.281 N 
ATOM     19  H   LIG    1        9.495  -2.809  -2.803  0.00  0.00    +0.155 HD
ATOM     20  C   LIG    1        8.028  -2.061  -1.534  0.00  0.00    +0.249 C 
ATOM     21  O   LIG    1        7.085  -1.972  -2.317  0.00  0.00    -0.270 OA
ENDBRANCH   4   9
BRANCH   1  24
ATOM     22  N   LIG    1        1.192  -0.260  -0.073  0.00  0.00    -0.307 N 
ATOM     23  H   LIG    1        1.456  -0.640  -0.970  0.00  0.00    +0.149 HD
ATOM     24  C   LIG    1        2.139  -0.154   0.877  0.00  0.00    +0.246 C 
ATOM     25  O   LIG    1        1.896   0.109   2.056  0.00  0.00    -0.270 OA
BRANCH  22  31
ATOM     26  C   LIG    1       -5.259  -0.440  -0.004  0.00  0.00    +0.133 C 
ATOM     27  N   LIG    1       -4.397  -0.368   1.179  0.00  0.00    -0.292 N 
ATOM     28  C   LIG    1       -3.257  -1.093   1.338  0.00  0.00    +0.304 C 
ATOM     29  N   LIG    1       -2.345  -1.147   0.317  0.00  0.00    -0.284 N 
ATOM     30  C   LIG    1       -0.925  -1.349   0.660  0.00  0.00    +0.131 C 
ATOM     31  C   LIG    1       -0.240  -0.079   0.161  0.00  0.00    +0.092 C 
ATOM     32  C   LIG    1       -0.977   0.136  -1.150  0.00  0.00    +0.043 C 
ATOM     33  C   LIG    1       -2.426  -0.300  -0.896  0.00  0.00    +0.111 C 
ATOM     34  O   LIG    1       -3.037  -1.662   2.412  0.00  0.00    -0.252 OA
ATOM     35  C   LIG    1       -5.029   0.313   2.311  0.00  0.00    +0.133 C 
ENDBRANCH  22  31
ENDBRANCH   1  24
TORSDOF 3
