REMARK  Name = DB15272
REMARK                            x       y       z     vdW  Elec       q    Type
REMARK                         _______ _______ _______ _____ _____    ______ ____
ROOT
ATOM      1  N   GLN A  9       -0.369   0.083  -0.478  0.00  0.00    -0.302 N 
ATOM      2  H   GLN A  9       -0.886  -0.605  -1.007  0.00  0.00    +0.150 HD
ATOM      3  C   ARG A  8       -1.036   1.057   0.160  0.00  0.00    +0.234 C 
ATOM      4  O   ARG A  8       -0.506   1.952   0.819  0.00  0.00    -0.274 OA
ENDROOT
BRANCH   1   5
ATOM      5  CA  GLN A  9        1.074  -0.141  -0.404  0.00  0.00    +0.160 C 
BRANCH   5  11
ATOM      6  CA  PRO A 10        3.336   0.041  -3.567  0.00  0.00    +0.162 C 
ATOM      7  CB  PRO A 10        4.373   1.178  -3.676  0.00  0.00    +0.033 C 
ATOM      8  CG  PRO A 10        3.800   2.318  -2.858  0.00  0.00    +0.021 C 
ATOM      9  CD  PRO A 10        3.096   1.600  -1.719  0.00  0.00    +0.109 C 
ATOM     10  N   PRO A 10        2.612   0.350  -2.309  0.00  0.00    -0.288 N 
ATOM     11  C   GLN A  9        1.601  -0.418  -1.828  0.00  0.00    +0.237 C 
ATOM     12  O   GLN A  9        1.094  -1.346  -2.460  0.00  0.00    -0.274 OA
BRANCH   6  14
ATOM     13  O   PRO A 10        4.108  -2.003  -2.567  0.00  0.00    -0.274 OA
ATOM     14  C   PRO A 10        4.018  -1.354  -3.611  0.00  0.00    +0.237 C 
ATOM     15  N   PRO A 11        4.509  -1.782  -4.803  0.00  0.00    -0.288 N 
ATOM     16  CD  PRO A 11        4.401  -1.067  -6.079  0.00  0.00    +0.109 C 
ATOM     17  CG  PRO A 11        4.601  -2.132  -7.147  0.00  0.00    +0.021 C 
ATOM     18  CB  PRO A 11        5.575  -3.088  -6.486  0.00  0.00    +0.033 C 
ATOM     19  CA  PRO A 11        5.150  -3.102  -5.006  0.00  0.00    +0.162 C 
BRANCH  19  20
ATOM     20  C   PRO A 11        6.326  -3.422  -4.061  0.00  0.00    +0.234 C 
ATOM     21  N   GLY A 12        6.079  -4.366  -3.140  0.00  0.00    -0.305 N 
ATOM     22  H   GLY A 12        5.165  -4.796  -3.119  0.00  0.00    +0.149 HD
ATOM     23  O   PRO A 11        7.391  -2.814  -4.174  0.00  0.00    -0.274 OA
BRANCH  21  24
ATOM     24  CA  GLY A 12        7.048  -4.874  -2.172  0.00  0.00    +0.200 C 
BRANCH  24  25
ATOM     25  C   GLY A 12        7.339  -6.351  -2.468  0.00  0.00    +0.231 C 
ATOM     26  N   LYS A 13        7.944  -7.033  -1.482  0.00  0.00    -0.303 N 
ATOM     27  H   LYS A 13        8.168  -6.559  -0.618  0.00  0.00    +0.149 HD
ATOM     28  O   GLY A 12        7.037  -6.862  -3.549  0.00  0.00    -0.274 OA
BRANCH  26  29
ATOM     29  CA  LYS A 13        8.223  -8.470  -1.511  0.00  0.00    +0.159 C 
BRANCH  29  30
ATOM     30  C   LYS A 13        6.941  -9.289  -1.289  0.00  0.00    +0.234 C 
ATOM     31  N   GLY A 14        6.770 -10.349  -2.096  0.00  0.00    -0.305 N 
ATOM     32  H   GLY A 14        7.452 -10.543  -2.814  0.00  0.00    +0.149 HD
ATOM     33  O   LYS A 13        6.172  -8.973  -0.380  0.00  0.00    -0.274 OA
BRANCH  31  34
ATOM     34  CA  GLY A 14        5.694 -11.323  -1.932  0.00  0.00    +0.200 C 
BRANCH  34  35
ATOM     35  C   GLY A 14        6.188 -12.382  -0.945  0.00  0.00    +0.231 C 
ATOM     36  N   GLU A 15        5.559 -12.430   0.239  0.00  0.00    -0.303 N 
ATOM     37  H   GLU A 15        4.801 -11.786   0.419  0.00  0.00    +0.149 HD
ATOM     38  O   GLY A 14        7.117 -13.128  -1.257  0.00  0.00    -0.274 OA
BRANCH  36  39
ATOM     39  CA  GLU A 15        5.901 -13.327   1.347  0.00  0.00    +0.159 C 
BRANCH  39  40
ATOM     40  C   GLU A 15        4.617 -13.985   1.885  0.00  0.00    +0.234 C 
ATOM     41  N   GLU A 16        3.788 -14.484   0.953  0.00  0.00    -0.302 N 
ATOM     42  H   GLU A 16        4.055 -14.426  -0.019  0.00  0.00    +0.150 HD
ATOM     43  O   GLU A 15        4.390 -14.011   3.095  0.00  0.00    -0.274 OA
BRANCH  41  44
ATOM     44  CA  GLU A 16        2.455 -15.030   1.207  0.00  0.00    +0.159 C 
BRANCH  44  45
ATOM     45  C   GLU A 16        2.512 -16.432   1.835  0.00  0.00    +0.234 C 
ATOM     46  N   TRP A 17        1.526 -16.721   2.701  0.00  0.00    -0.302 N 
ATOM     47  H   TRP A 17        0.829 -16.020   2.909  0.00  0.00    +0.150 HD
ATOM     48  O   GLU A 16        3.400 -17.219   1.504  0.00  0.00    -0.274 OA
BRANCH  46  49
ATOM     49  CA  TRP A 17        1.321 -18.032   3.313  0.00  0.00    +0.163 C 
BRANCH  49  50
ATOM     50  C   TRP A 17        0.738 -19.053   2.319  0.00  0.00    +0.234 C 
ATOM     51  N   ILE A 18        1.149 -20.316   2.501  0.00  0.00    -0.302 N 
ATOM     52  H   ILE A 18        1.841 -20.513   3.209  0.00  0.00    +0.150 HD
ATOM     53  O   TRP A 17       -0.099 -18.700   1.487  0.00  0.00    -0.274 OA
BRANCH  51  54
ATOM     54  CA  ILE A 18        0.550 -21.488   1.876  0.00  0.00    +0.162 C 
BRANCH  54  55
ATOM     55  C   ILE A 18        0.823 -22.712   2.769  0.00  0.00    +0.234 C 
ATOM     56  N   GLY A 19       -0.262 -23.391   3.171  0.00  0.00    -0.303 N 
ATOM     57  H   GLY A 19       -1.177 -23.086   2.872  0.00  0.00    +0.149 HD
ATOM     58  O   ILE A 18        1.975 -22.991   3.103  0.00  0.00    -0.274 OA
BRANCH  56  59
ATOM     59  CA  GLY A 19       -0.226 -24.565   4.051  0.00  0.00    +0.224 C 
BRANCH  59  60
ATOM     60  C   GLY A 19       -1.597 -24.880   4.702  0.00  0.00    +0.322 C 
ATOM     61  OXT GLY A 19       -1.639 -25.917   5.401  0.00  0.00    -0.249 OA
BRANCH  60  62
ATOM     62  O   GLY A 19       -2.579 -24.116   4.532  0.00  0.00    -0.480 OA
ATOM     63  H   GLY A 19       -3.355 -24.435   4.115  0.00  0.00    +0.295 HD
ENDBRANCH  60  62
ENDBRANCH  59  60
ENDBRANCH  56  59
ENDBRANCH  54  55
BRANCH  54  64
ATOM     64  CB  ILE A 18        1.036 -21.717   0.409  0.00  0.00    +0.015 C 
ATOM     65  CG2 ILE A 18        2.567 -21.851   0.264  0.00  0.00    +0.010 C 
BRANCH  64  66
ATOM     66  CG1 ILE A 18        0.339 -22.903  -0.299  0.00  0.00    +0.002 C 
ATOM     67  CD1 ILE A 18       -1.193 -22.799  -0.342  0.00  0.00    +0.004 C 
ENDBRANCH  64  66
ENDBRANCH  54  64
ENDBRANCH  51  54
ENDBRANCH  49  50
BRANCH  49  68
ATOM     68  CB  TRP A 17        0.424 -17.879   4.565  0.00  0.00    +0.069 C 
BRANCH  68  69
ATOM     69  CG  TRP A 17       -0.041 -19.156   5.214  0.00  0.00    -0.020 A 
ATOM     70  CD1 TRP A 17       -1.299 -19.650   5.155  0.00  0.00    +0.087 A 
ATOM     71  NE1 TRP A 17       -1.347 -20.878   5.780  0.00  0.00    -0.360 N 
ATOM     72  HE1 TRP A 17       -2.191 -21.432   5.836  0.00  0.00    +0.165 HD
ATOM     73  CE2 TRP A 17       -0.112 -21.250   6.268  0.00  0.00    +0.047 A 
ATOM     74  CZ2 TRP A 17        0.350 -22.389   6.948  0.00  0.00    +0.026 A 
ATOM     75  CH2 TRP A 17        1.711 -22.478   7.291  0.00  0.00    +0.002 A 
ATOM     76  CZ3 TRP A 17        2.589 -21.429   6.956  0.00  0.00    +0.001 A 
ATOM     77  CE3 TRP A 17        2.112 -20.288   6.278  0.00  0.00    +0.010 A 
ATOM     78  CD2 TRP A 17        0.749 -20.165   5.917  0.00  0.00    +0.003 A 
ENDBRANCH  68  69
ENDBRANCH  49  68
ENDBRANCH  46  49
ENDBRANCH  44  45
BRANCH  44  79
ATOM     79  CB  GLU A 16        1.661 -15.072  -0.123  0.00  0.00    +0.043 C 
BRANCH  79  80
ATOM     80  CG  GLU A 16        1.707 -13.784  -0.986  0.00  0.00    +0.123 C 
BRANCH  80  81
ATOM     81  CD  GLU A 16        1.231 -12.488  -0.306  0.00  0.00    +0.305 C 
ATOM     82  OE2 GLU A 16        1.753 -11.424  -0.706  0.00  0.00    -0.251 OA
BRANCH  81  83
ATOM     83  OE1 GLU A 16        0.349 -12.563   0.580  0.00  0.00    -0.481 OA
ATOM     84  HE1 GLU A 16       -0.182 -13.331   0.649  0.00  0.00    +0.295 HD
ENDBRANCH  81  83
ENDBRANCH  80  81
ENDBRANCH  79  80
ENDBRANCH  44  79
ENDBRANCH  41  44
ENDBRANCH  39  40
BRANCH  39  85
ATOM     85  CB  GLU A 15        6.701 -12.559   2.430  0.00  0.00    +0.043 C 
BRANCH  85  86
ATOM     86  CG  GLU A 15        8.014 -11.921   1.913  0.00  0.00    +0.123 C 
BRANCH  86  87
ATOM     87  CD  GLU A 15        8.895 -11.235   2.973  0.00  0.00    +0.305 C 
ATOM     88  OE2 GLU A 15        9.985 -10.774   2.569  0.00  0.00    -0.251 OA
BRANCH  87  89
ATOM     89  OE1 GLU A 15        8.493 -11.167   4.157  0.00  0.00    -0.481 OA
ATOM     90  HE1 GLU A 15        8.075 -11.906   4.553  0.00  0.00    +0.295 HD
ENDBRANCH  87  89
ENDBRANCH  86  87
ENDBRANCH  85  86
ENDBRANCH  39  85
ENDBRANCH  36  39
ENDBRANCH  34  35
ENDBRANCH  31  34
ENDBRANCH  29  30
BRANCH  29  91
ATOM     91  CB  LYS A 13        9.260  -8.815  -0.422  0.00  0.00    +0.032 C 
BRANCH  91  92
ATOM     92  CG  LYS A 13       10.650  -8.209  -0.671  0.00  0.00    +0.000 C 
BRANCH  92  93
ATOM     93  CD  LYS A 13       11.650  -8.590   0.435  0.00  0.00    -0.019 C 
BRANCH  93  94
ATOM     94  CE  LYS A 13       13.063  -8.015   0.237  0.00  0.00    -0.086 C 
BRANCH  94  95
ATOM     95  NZ  LYS A 13       13.775  -8.649  -0.888  0.00  0.00    +0.378 N 
ATOM     96  HZ1 LYS A 13       13.849  -9.643  -0.719  0.00  0.00    -0.090 HD
ATOM     97  HZ2 LYS A 13       13.260  -8.491  -1.743  0.00  0.00    -0.090 HD
ATOM     98  HZ3 LYS A 13       14.699  -8.251  -0.970  0.00  0.00    -0.090 HD
ENDBRANCH  94  95
ENDBRANCH  93  94
ENDBRANCH  92  93
ENDBRANCH  91  92
ENDBRANCH  29  91
ENDBRANCH  26  29
ENDBRANCH  24  25
ENDBRANCH  21  24
ENDBRANCH  19  20
ENDBRANCH   6  14
ENDBRANCH   5  11
BRANCH   5  99
ATOM     99  CB  GLN A  9        1.333  -1.365   0.506  0.00  0.00    +0.041 C 
BRANCH  99 100
ATOM    100  CG  GLN A  9        0.983  -1.119   1.990  0.00  0.00    +0.098 C 
BRANCH 100 101
ATOM    101  CD  GLN A  9        1.294  -2.312   2.899  0.00  0.00    +0.211 C 
ATOM    102  NE2 GLN A  9        0.662  -2.348   4.074  0.00  0.00    -0.329 N 
ATOM    103 HE21 GLN A  9        0.008  -1.621   4.327  0.00  0.00    +0.145 HD
ATOM    104 HE22 GLN A  9        0.838  -3.104   4.720  0.00  0.00    +0.145 HD
ATOM    105  OE1 GLN A  9        2.104  -3.175   2.567  0.00  0.00    -0.276 OA
ENDBRANCH 100 101
ENDBRANCH  99 100
ENDBRANCH   5  99
ENDBRANCH   1   5
BRANCH   3 106
ATOM    106  CA  ARG A  8       -2.565   0.975   0.067  0.00  0.00    +0.159 C 
BRANCH 106 107
ATOM    107  N   ARG A  8       -3.116   1.108   1.413  0.00  0.00    -0.302 N 
ATOM    108  H   ARG A  8       -2.569   1.663   2.055  0.00  0.00    +0.150 HD
ATOM    109  C   ILE A  7       -4.243   0.523   1.842  0.00  0.00    +0.234 C 
ATOM    110  O   ILE A  7       -4.975  -0.181   1.144  0.00  0.00    -0.274 OA
BRANCH 109 111
ATOM    111  CA  ILE A  7       -4.592   0.761   3.324  0.00  0.00    +0.162 C 
BRANCH 111 112
ATOM    112  N   ILE A  7       -6.024   1.009   3.477  0.00  0.00    -0.302 N 
ATOM    113  H   ILE A  7       -6.567   0.235   3.830  0.00  0.00    +0.150 HD
ATOM    114  C   TRP A  6       -6.645   2.162   3.180  0.00  0.00    +0.234 C 
ATOM    115  O   TRP A  6       -6.084   3.173   2.756  0.00  0.00    -0.274 OA
BRANCH 114 116
ATOM    116  CA  TRP A  6       -8.162   2.167   3.413  0.00  0.00    +0.163 C 
BRANCH 116 117
ATOM    117  N   TRP A  6       -8.542   2.887   4.627  0.00  0.00    -0.302 N 
ATOM    118  H   TRP A  6       -9.125   3.699   4.485  0.00  0.00    +0.150 HD
ATOM    119  C   SER A  5       -8.279   2.490   5.881  0.00  0.00    +0.236 C 
ATOM    120  O   SER A  5       -7.589   1.515   6.181  0.00  0.00    -0.274 OA
BRANCH 119 121
ATOM    121  CA  SER A  5       -8.961   3.302   6.995  0.00  0.00    +0.184 C 
BRANCH 121 122
ATOM    122  N   SER A  5       -9.897   2.445   7.719  0.00  0.00    -0.301 N 
ATOM    123  H   SER A  5       -9.583   2.109   8.618  0.00  0.00    +0.150 HD
ATOM    124  C   TRP A  4      -11.065   2.003   7.223  0.00  0.00    +0.234 C 
ATOM    125  O   TRP A  4      -11.542   2.348   6.141  0.00  0.00    -0.274 OA
BRANCH 124 126
ATOM    126  CA  TRP A  4      -11.808   0.964   8.079  0.00  0.00    +0.163 C 
BRANCH 126 127
ATOM    127  N   TRP A  4      -13.194   1.369   8.302  0.00  0.00    -0.302 N 
ATOM    128  H   TRP A  4      -13.889   0.915   7.727  0.00  0.00    +0.150 HD
ATOM    129  C   TYR A  3      -13.559   2.345   9.147  0.00  0.00    +0.234 C 
ATOM    130  O   TYR A  3      -12.776   2.953   9.880  0.00  0.00    -0.274 OA
BRANCH 129 131
ATOM    131  CA  TYR A  3      -15.049   2.715   9.143  0.00  0.00    +0.163 C 
BRANCH 131 132
ATOM    132  N   TYR A  3      -15.429   3.119  10.493  0.00  0.00    -0.302 N 
ATOM    133  H   TYR A  3      -14.694   3.559  11.028  0.00  0.00    +0.150 HD
ATOM    134  C   TYR A  2      -16.593   2.838  11.092  0.00  0.00    +0.234 C 
ATOM    135  O   TYR A  2      -17.556   2.302  10.541  0.00  0.00    -0.274 OA
BRANCH 134 136
ATOM    136  CA  TYR A  2      -16.648   3.170  12.596  0.00  0.00    +0.163 C 
BRANCH 136 137
ATOM    137  N   TYR A  2      -17.995   3.542  13.036  0.00  0.00    -0.305 N 
ATOM    138  H   TYR A  2      -18.463   2.865  13.621  0.00  0.00    +0.149 HD
ATOM    139  C   GLY A  1      -18.640   4.670  12.679  0.00  0.00    +0.196 C 
ATOM    140  O   GLY A  1      -18.120   5.554  11.997  0.00  0.00    -0.278 OA
BRANCH 139 141
ATOM    141  CA  GLY A  1      -20.078   4.852  13.183  0.00  0.00    +0.011 C 
BRANCH 141 142
ATOM    142  N   GLY A  1      -20.960   3.999  12.343  0.00  0.00    +0.384 N 
ATOM    143  H1  GLY A  1      -20.912   4.276  11.372  0.00  0.00    -0.089 HD
ATOM    144  H2  GLY A  1      -20.701   3.026  12.411  0.00  0.00    -0.089 HD
ATOM    145  H3  GLY A  1      -21.923   4.083  12.636  0.00  0.00    -0.089 HD
ENDBRANCH 141 142
ENDBRANCH 139 141
ENDBRANCH 136 137
BRANCH 136 146
ATOM    146  CB  TYR A  2      -16.146   1.990  13.465  0.00  0.00    +0.067 C 
BRANCH 146 147
ATOM    147  CG  TYR A  2      -14.786   1.424  13.076  0.00  0.00    -0.045 A 
ATOM    148  CD2 TYR A  2      -13.609   2.130  13.399  0.00  0.00    +0.007 A 
ATOM    149  CE2 TYR A  2      -12.354   1.643  12.984  0.00  0.00    +0.045 A 
ATOM    150  CZ  TYR A  2      -12.270   0.448  12.243  0.00  0.00    +0.117 A 
ATOM    151  CE1 TYR A  2      -13.442  -0.267  11.929  0.00  0.00    +0.045 A 
ATOM    152  CD1 TYR A  2      -14.697   0.218  12.348  0.00  0.00    +0.007 A 
BRANCH 150 153
ATOM    153  OH  TYR A  2      -11.057  -0.014  11.823  0.00  0.00    -0.507 OA
ATOM    154  HH  TYR A  2      -10.327   0.547  12.095  0.00  0.00    +0.292 HD
ENDBRANCH 150 153
ENDBRANCH 146 147
ENDBRANCH 136 146
ENDBRANCH 134 136
ENDBRANCH 131 132
BRANCH 131 155
ATOM    155  CB  TYR A  3      -15.381   3.843   8.137  0.00  0.00    +0.067 C 
BRANCH 155 156
ATOM    156  CG  TYR A  3      -14.614   5.147   8.311  0.00  0.00    -0.045 A 
ATOM    157  CD2 TYR A  3      -13.394   5.351   7.632  0.00  0.00    +0.007 A 
ATOM    158  CE2 TYR A  3      -12.677   6.550   7.805  0.00  0.00    +0.045 A 
ATOM    159  CZ  TYR A  3      -13.180   7.554   8.655  0.00  0.00    +0.117 A 
ATOM    160  CE1 TYR A  3      -14.400   7.356   9.332  0.00  0.00    +0.045 A 
ATOM    161  CD1 TYR A  3      -15.116   6.156   9.159  0.00  0.00    +0.007 A 
BRANCH 159 162
ATOM    162  OH  TYR A  3      -12.485   8.716   8.823  0.00  0.00    -0.507 OA
ATOM    163  HH  TYR A  3      -12.918   9.328   9.422  0.00  0.00    +0.292 HD
ENDBRANCH 159 162
ENDBRANCH 155 156
ENDBRANCH 131 155
ENDBRANCH 129 131
ENDBRANCH 126 127
BRANCH 126 164
ATOM    164  CB  TRP A  4      -11.781  -0.437   7.436  0.00  0.00    +0.069 C 
BRANCH 164 165
ATOM    165  CG  TRP A  4      -10.427  -0.974   7.062  0.00  0.00    -0.020 A 
ATOM    166  CD1 TRP A  4       -9.452  -1.310   7.937  0.00  0.00    +0.087 A 
ATOM    167  NE1 TRP A  4       -8.336  -1.736   7.247  0.00  0.00    -0.360 N 
ATOM    168  HE1 TRP A  4       -7.490  -2.034   7.711  0.00  0.00    +0.165 HD
ATOM    169  CE2 TRP A  4       -8.534  -1.696   5.883  0.00  0.00    +0.047 A 
ATOM    170  CZ2 TRP A  4       -7.722  -2.022   4.782  0.00  0.00    +0.026 A 
ATOM    171  CH2 TRP A  4       -8.231  -1.862   3.481  0.00  0.00    +0.002 A 
ATOM    172  CZ3 TRP A  4       -9.542  -1.382   3.297  0.00  0.00    +0.001 A 
ATOM    173  CE3 TRP A  4      -10.345  -1.049   4.408  0.00  0.00    +0.010 A 
ATOM    174  CD2 TRP A  4       -9.866  -1.204   5.731  0.00  0.00    +0.003 A 
ENDBRANCH 164 165
ENDBRANCH 126 164
ENDBRANCH 124 126
ENDBRANCH 121 122
BRANCH 121 175
ATOM    175  CB  SER A  5       -7.953   3.901   7.996  0.00  0.00    +0.187 C 
BRANCH 175 176
ATOM    176  OG  SER A  5       -7.046   4.778   7.358  0.00  0.00    -0.393 OA
ATOM    177  H   SER A  5       -6.432   5.112   8.015  0.00  0.00    +0.209 HD
ENDBRANCH 175 176
ENDBRANCH 121 175
ENDBRANCH 119 121
ENDBRANCH 116 117
BRANCH 116 178
ATOM    178  CB  TRP A  6       -8.940   2.739   2.211  0.00  0.00    +0.069 C 
BRANCH 178 179
ATOM    179  CG  TRP A  6      -10.434   2.680   2.342  0.00  0.00    -0.020 A 
ATOM    180  CD1 TRP A  6      -11.211   1.648   1.942  0.00  0.00    +0.087 A 
ATOM    181  NE1 TRP A  6      -12.523   1.892   2.289  0.00  0.00    -0.360 N 
ATOM    182  HE1 TRP A  6      -13.270   1.244   2.083  0.00  0.00    +0.165 HD
ATOM    183  CE2 TRP A  6      -12.661   3.095   2.948  0.00  0.00    +0.047 A 
ATOM    184  CZ2 TRP A  6      -13.764   3.770   3.502  0.00  0.00    +0.026 A 
ATOM    185  CH2 TRP A  6      -13.563   5.011   4.132  0.00  0.00    +0.002 A 
ATOM    186  CZ3 TRP A  6      -12.267   5.559   4.204  0.00  0.00    +0.001 A 
ATOM    187  CE3 TRP A  6      -11.169   4.872   3.647  0.00  0.00    +0.010 A 
ATOM    188  CD2 TRP A  6      -11.335   3.624   3.000  0.00  0.00    +0.003 A 
ENDBRANCH 178 179
ENDBRANCH 116 178
ENDBRANCH 114 116
ENDBRANCH 111 112
BRANCH 111 189
ATOM    189  CB  ILE A  7       -4.149  -0.483   4.157  0.00  0.00    +0.015 C 
ATOM    190  CG2 ILE A  7       -2.666  -0.881   3.974  0.00  0.00    +0.010 C 
BRANCH 189 191
ATOM    191  CG1 ILE A  7       -4.482  -0.330   5.662  0.00  0.00    +0.002 C 
ATOM    192  CD1 ILE A  7       -3.902   0.920   6.339  0.00  0.00    +0.004 C 
ENDBRANCH 189 191
ENDBRANCH 111 189
ENDBRANCH 109 111
ENDBRANCH 106 107
BRANCH 106 193
ATOM    193  CB  ARG A  8       -3.196   2.022  -0.881  0.00  0.00    +0.033 C 
BRANCH 193 194
ATOM    194  CG  ARG A  8       -3.039   3.495  -0.456  0.00  0.00    +0.017 C 
BRANCH 194 195
ATOM    195  CD  ARG A  8       -3.792   4.457  -1.390  0.00  0.00    +0.084 C 
BRANCH 195 196
ATOM    196  NE  ARG A  8       -3.814   5.835  -0.869  0.00  0.00    -0.283 NA
ATOM    197  HE  ARG A  8       -3.054   6.425  -1.176  0.00  0.00    +0.125 HD
BRANCH 196 198
ATOM    198  CZ  ARG A  8       -4.701   6.361  -0.002  0.00  0.00    +0.167 C 
BRANCH 198 199
ATOM    199  NH2 ARG A  8       -4.557   7.640   0.371  0.00  0.00    -0.297 NA
ATOM    200 HH21 ARG A  8       -5.207   8.057   1.021  0.00  0.00    +0.121 HD
ATOM    201 HH22 ARG A  8       -3.794   8.192   0.006  0.00  0.00    +0.121 HD
ENDBRANCH 198 199
BRANCH 198 202
ATOM    202  NH1 ARG A  8       -5.723   5.652   0.506  0.00  0.00    -0.297 NA
ATOM    203 HH11 ARG A  8       -5.841   4.682   0.253  0.00  0.00    +0.121 HD
ATOM    204 HH12 ARG A  8       -6.364   6.076   1.162  0.00  0.00    +0.121 HD
ENDBRANCH 198 202
ENDBRANCH 196 198
ENDBRANCH 195 196
ENDBRANCH 194 195
ENDBRANCH 193 194
ENDBRANCH 106 193
ENDBRANCH   3 106
TORSDOF 78
