REMARK  Name = DB15114
REMARK                            x       y       z     vdW  Elec       q    Type
REMARK                         _______ _______ _______ _____ _____    ______ ____
ROOT
ATOM      1  C   LIG    1       -0.942   0.079  -2.554  0.00  0.00    +0.011 C 
ATOM      2  C   LIG    1       -0.682  -0.722  -1.260  0.00  0.00    +0.026 C 
ATOM      3  C   LIG    1       -0.116   0.099  -0.047  0.00  0.00    +0.134 C 
ATOM      4  C   LIG    1       -0.537  -0.782   1.190  0.00  0.00    +0.011 C 
ATOM      5  C   LIG    1        0.340  -2.075   1.345  0.00  0.00    +0.015 C 
ATOM      6  C   LIG    1       -0.610  -0.057   2.567  0.00  0.00    +0.037 C 
ATOM      7  C   LIG    1       -1.469  -0.851   3.553  0.00  0.00    -0.026 C 
ATOM      8  C   LIG    1       -2.377  -1.810   3.225  0.00  0.00    -0.056 C 
ATOM      9  C   LIG    1       -3.140  -2.664   4.274  0.00  0.00    +0.029 C 
ATOM     10  C   LIG    1       -2.616  -4.123   4.237  0.00  0.00    +0.025 C 
ATOM     11  C   LIG    1       -2.979  -2.181   5.727  0.00  0.00    -0.008 C 
ATOM     12  C   LIG    1       -3.977  -1.753   6.526  0.00  0.00    +0.048 C 
ATOM     13  C   LIG    1       -5.377  -1.696   6.117  0.00  0.00    +0.179 C 
ATOM     14  O   LIG    1       -6.277  -1.290   6.850  0.00  0.00    -0.288 OA
ATOM     15  C   LIG    1       -5.608  -2.171   4.753  0.00  0.00    +0.051 C 
ATOM     16  C   LIG    1       -4.648  -2.613   3.905  0.00  0.00    -0.052 C 
ATOM     17  C   LIG    1       -4.977  -3.063   2.487  0.00  0.00    +0.032 C 
ATOM     18  C   LIG    1       -4.210  -2.177   1.497  0.00  0.00    +0.012 C 
ATOM     19  C   LIG    1       -2.681  -2.144   1.736  0.00  0.00    +0.020 C 
ATOM     20  C   LIG    1       -1.993  -1.123   0.784  0.00  0.00    +0.006 C 
ATOM     21  C   LIG    1       -1.933  -1.455  -0.717  0.00  0.00    +0.011 C 
ENDROOT
BRANCH   3  22
ATOM     22  C   LIG    1        1.430   0.320  -0.134  0.00  0.00    +0.190 C 
ATOM     23  O   LIG    1        2.139  -0.435  -0.805  0.00  0.00    -0.292 OA
BRANCH  22  24
ATOM     24  C   LIG    1        2.045   1.506   0.645  0.00  0.00    +0.233 C 
BRANCH  24  25
ATOM     25  O   LIG    1        3.456   1.512   0.525  0.00  0.00    -0.387 OA
ATOM     26  H   LIG    1        3.802   2.269   1.004  0.00  0.00    +0.210 HD
ENDBRANCH  24  25
ENDBRANCH  22  24
ENDBRANCH   3  22
BRANCH   3  27
ATOM     27  O   LIG    1       -0.687   1.406   0.001  0.00  0.00    -0.380 OA
ATOM     28  H   LIG    1       -1.643   1.318  -0.003  0.00  0.00    +0.211 HD
ENDBRANCH   3  27
TORSDOF 4
