REMARK  Name = DB15040
REMARK                            x       y       z     vdW  Elec       q    Type
REMARK                         _______ _______ _______ _____ _____    ______ ____
ROOT
ATOM      1  C   LIG    1       -6.713  -3.844  -0.065  0.00  0.00    +0.187 C 
ATOM      2  C   LIG    1       -7.536  -4.075  -1.375  0.00  0.00    +0.210 C 
ATOM      3  O   LIG    1       -7.322  -5.078  -2.066  0.00  0.00    -0.288 OA
ATOM      4  C   LIG    1       -8.613  -3.104  -1.748  0.00  0.00    +0.118 C 
ATOM      5  C   LIG    1       -9.176  -2.342  -0.745  0.00  0.00    +0.097 C 
ATOM      6  C   LIG    1       -8.722  -2.376   0.736  0.00  0.00    +0.005 C 
ATOM      7  C   LIG    1       -7.171  -2.574   0.735  0.00  0.00    +0.030 C 
ATOM      8  C   LIG    1       -6.477  -1.306   0.190  0.00  0.00    +0.014 C 
ATOM      9  C   LIG    1       -4.947  -1.344   0.349  0.00  0.00    +0.031 C 
ATOM     10  C   LIG    1       -4.308  -0.178  -0.422  0.00  0.00    +0.047 C 
ATOM     11  C   LIG    1       -2.796  -0.209  -0.282  0.00  0.00    +0.003 A 
ATOM     12  C   LIG    1       -2.080   0.991  -0.216  0.00  0.00    +0.129 A 
ATOM     13  F   LIG    1       -2.732   2.176  -0.264  0.00  0.00    -0.205 F 
ATOM     14  C   LIG    1       -0.700   0.996  -0.105  0.00  0.00    +0.065 A 
ATOM     15  C   LIG    1        0.007  -0.206  -0.064  0.00  0.00    +0.079 A 
ATOM     16  C   LIG    1       -0.695  -1.424  -0.118  0.00  0.00    +0.149 A 
ATOM     17  C   LIG    1       -2.114  -1.448  -0.227  0.00  0.00    +0.071 A 
ATOM     18  C   LIG    1       -2.886  -2.763  -0.312  0.00  0.00    +0.197 C 
ATOM     19  O   LIG    1       -2.289  -3.832  -0.463  0.00  0.00    -0.287 OA
ATOM     20  C   LIG    1       -4.374  -2.686  -0.141  0.00  0.00    +0.044 C 
ATOM     21  C   LIG    1       -5.180  -3.772  -0.355  0.00  0.00    +0.140 C 
ENDROOT
BRANCH   4  22
ATOM     22  C   LIG    1       -9.007  -3.052  -3.169  0.00  0.00    +0.248 C 
ATOM     23  N   LIG    1      -10.314  -2.939  -3.436  0.00  0.00    -0.325 N 
ATOM     24  H   LIG    1      -10.636  -2.929  -4.393  0.00  0.00    +0.145 HD
ATOM     25  H   LIG    1      -10.979  -2.836  -2.684  0.00  0.00    +0.145 HD
ATOM     26  O   LIG    1       -8.200  -3.167  -4.091  0.00  0.00    -0.270 OA
ENDBRANCH   4  22
BRANCH   6  27
ATOM     27  N   LIG    1       -9.431  -3.516   1.540  0.00  0.00    +0.383 N 
ATOM     28  H   LIG    1       -9.095  -4.389   1.157  0.00  0.00    -0.082 HD
ATOM     29  C   LIG    1       -9.074  -3.520   3.044  0.00  0.00    -0.096 C 
ATOM     30  C   LIG    1      -10.969  -3.531   1.391  0.00  0.00    -0.096 C 
ENDBRANCH   6  27
BRANCH  15  31
ATOM     31  N   LIG    1        1.411  -0.215   0.072  0.00  0.00    -0.284 N 
ATOM     32  H   LIG    1        1.787  -0.960   0.640  0.00  0.00    +0.155 HD
ATOM     33  C   LIG    1        2.293   0.593  -0.555  0.00  0.00    +0.204 C 
ATOM     34  O   LIG    1        1.979   1.467  -1.367  0.00  0.00    -0.277 OA
BRANCH  33  35
ATOM     35  C   LIG    1        3.777   0.356  -0.205  0.00  0.00    +0.019 C 
ATOM     36  N   LIG    1        4.543   0.192  -1.541  0.00  0.00    +0.385 N 
ATOM     37  H   LIG    1        3.995   0.647  -2.259  0.00  0.00    -0.081 HD
ATOM     38  C   LIG    1        4.763  -1.268  -1.976  0.00  0.00    -0.095 C 
ATOM     39  C   LIG    1        5.830   1.018  -1.401  0.00  0.00    -0.078 C 
ATOM     40  C   LIG    1        5.374   2.202  -0.558  0.00  0.00    -0.020 C 
ATOM     41  C   LIG    1        4.437   1.579   0.474  0.00  0.00    -0.008 C 
ENDBRANCH  33  35
ENDBRANCH  15  31
BRANCH   1  42
ATOM     42  O   LIG    1       -6.951  -4.980   0.762  0.00  0.00    -0.373 OA
ATOM     43  H   LIG    1       -6.771  -5.773   0.252  0.00  0.00    +0.211 HD
ENDBRANCH   1  42
BRANCH   5  44
ATOM     44  O   LIG    1      -10.050  -1.397  -0.905  0.00  0.00    -0.512 OA
ATOM     45  H   LIG    1      -10.378  -0.931  -0.160  0.00  0.00    +0.292 HD
ENDBRANCH   5  44
BRANCH  16  46
ATOM     46  O   LIG    1        0.045  -2.586  -0.049  0.00  0.00    -0.504 OA
ATOM     47  H   LIG    1        0.990  -2.431  -0.001  0.00  0.00    +0.292 HD
ENDBRANCH  16  46
BRANCH  21  48
ATOM     48  O   LIG    1       -4.733  -4.977  -0.830  0.00  0.00    -0.507 OA
ATOM     49  H   LIG    1       -5.476  -5.573  -0.944  0.00  0.00    +0.292 HD
ENDBRANCH  21  48
TORSDOF 8
