REMARK  Name = DB15038
REMARK                            x       y       z     vdW  Elec       q    Type
REMARK                         _______ _______ _______ _____ _____    ______ ____
ROOT
ATOM      1  C   LIG    1        0.130   0.151   0.537  0.00  0.00    +0.195 C 
ENDROOT
BRANCH   1   2
ATOM      2  C   LIG    1       -0.431   1.550   0.351  0.00  0.00    -0.021 A 
ATOM      3  C   LIG    1       -1.213   1.842  -0.767  0.00  0.00    +0.014 A 
ATOM      4  C   LIG    1       -1.738   3.144  -0.961  0.00  0.00    -0.018 A 
ATOM      5  C   LIG    1       -2.535   3.469  -2.087  0.00  0.00    +0.008 A 
ATOM      6  C   LIG    1       -3.035   4.758  -2.247  0.00  0.00    +0.001 A 
ATOM      7  C   LIG    1       -2.760   5.745  -1.305  0.00  0.00    +0.001 A 
ATOM      8  C   LIG    1       -1.981   5.460  -0.187  0.00  0.00    +0.008 A 
ATOM      9  C   LIG    1       -1.456   4.157   0.006  0.00  0.00    -0.018 A 
ATOM     10  C   LIG    1       -0.658   3.833   1.130  0.00  0.00    +0.009 A 
ATOM     11  C   LIG    1       -0.157   2.544   1.290  0.00  0.00    +0.006 A 
ENDBRANCH   1   2
BRANCH   1  12
ATOM     12  O   LIG    1        1.353   0.050  -0.183  0.00  0.00    -0.372 OA
BRANCH  12  13
ATOM     13  C   LIG    1        1.949  -1.243  -0.218  0.00  0.00    +0.115 C 
ATOM     14  C   LIG    1        3.029  -1.245  -1.317  0.00  0.00    +0.012 C 
ATOM     15  C   LIG    1        3.688  -2.631  -1.451  0.00  0.00    -0.080 C 
ATOM     16  N   LIG    1        4.276  -3.050  -0.089  0.00  0.00    +0.379 N 
ATOM     17  H   LIG    1        4.680  -3.973  -0.167  0.00  0.00    -0.086 HD
ATOM     18  H   LIG    1        5.027  -2.419   0.151  0.00  0.00    -0.086 HD
ATOM     19  C   LIG    1        3.233  -3.041   1.045  0.00  0.00    -0.080 C 
ATOM     20  C   LIG    1        2.582  -1.647   1.133  0.00  0.00    +0.012 C 
ENDBRANCH  12  13
ENDBRANCH   1  12
TORSDOF 3
