REMARK  Name = DB15359
REMARK                            x       y       z     vdW  Elec       q    Type
REMARK                         _______ _______ _______ _____ _____    ______ ____
ROOT
ATOM      1  C   LIG    1       -0.673   1.050   0.071  0.00  0.00    +0.138 A 
ATOM      2  C   LIG    1       -1.980   1.225   0.551  0.00  0.00    +0.092 A 
ATOM      3  C   LIG    1       -2.897   0.180   0.549  0.00  0.00    +0.127 A 
ATOM      4  C   LIG    1       -2.535  -1.077   0.050  0.00  0.00    +0.040 A 
ATOM      5  C   LIG    1       -1.230  -1.272  -0.434  0.00  0.00    +0.138 A 
ATOM      6  C   LIG    1       -0.285  -0.220  -0.408  0.00  0.00    +0.105 A 
ENDROOT
BRANCH   1   8
ATOM      7  C   LIG    1       -0.104   3.375   0.526  0.00  0.00    +0.277 C 
ATOM      8  O   LIG    1        0.262   2.075   0.077  0.00  0.00    -0.494 OA
ENDBRANCH   1   8
BRANCH   3   9
ATOM      9  O   LIG    1       -4.152   0.421   1.049  0.00  0.00    -0.506 OA
ATOM     10  H   LIG    1       -4.262   1.323   1.358  0.00  0.00    +0.292 HD
ENDBRANCH   3   9
BRANCH   5  11
ATOM     11  O   LIG    1       -0.900  -2.507  -0.948  0.00  0.00    -0.506 OA
ATOM     12  H   LIG    1       -1.621  -3.138  -0.888  0.00  0.00    +0.292 HD
ENDBRANCH   5  11
BRANCH   6  13
ATOM     13  C   LIG    1        1.110  -0.421  -0.936  0.00  0.00    +0.193 C 
ATOM     14  O   LIG    1        1.636   0.404  -1.686  0.00  0.00    -0.287 OA
BRANCH  13  15
ATOM     15  C   LIG    1        1.881  -1.544  -0.393  0.00  0.00    +0.052 C 
ATOM     16  C   LIG    1        3.115  -1.875  -0.830  0.00  0.00    +0.012 C 
BRANCH  16  17
ATOM     17  C   LIG    1        3.951  -2.994  -0.342  0.00  0.00    -0.025 A 
ATOM     18  C   LIG    1        3.487  -3.929   0.595  0.00  0.00    +0.011 A 
ATOM     19  C   LIG    1        4.312  -4.965   1.025  0.00  0.00    +0.046 A 
ATOM     20  C   LIG    1        5.606  -5.073   0.522  0.00  0.00    +0.117 A 
ATOM     21  C   LIG    1        6.080  -4.151  -0.409  0.00  0.00    +0.046 A 
ATOM     22  C   LIG    1        5.254  -3.116  -0.838  0.00  0.00    +0.011 A 
BRANCH  20  23
ATOM     23  O   LIG    1        6.419  -6.091   0.945  0.00  0.00    -0.507 OA
ATOM     24  H   LIG    1        5.996  -6.665   1.587  0.00  0.00    +0.292 HD
ENDBRANCH  20  23
ENDBRANCH  16  17
ENDBRANCH  13  15
ENDBRANCH   6  13
BRANCH   4  25
ATOM     25  C   LIG    1       -3.554  -2.223   0.021  0.00  0.00    +0.069 C 
BRANCH  25  26
ATOM     26  C   LIG    1       -3.409  -3.156   1.215  0.00  0.00    -0.023 C 
ATOM     27  C   LIG    1       -3.050  -4.459   1.222  0.00  0.00    -0.079 C 
ATOM     28  C   LIG    1       -2.696  -5.280  -0.011  0.00  0.00    +0.038 C 
ATOM     29  C   LIG    1       -2.963  -5.240   2.522  0.00  0.00    +0.038 C 
ENDBRANCH  25  26
ENDBRANCH   4  25
TORSDOF 9
