REMARK  Name = DB15244
REMARK                            x       y       z     vdW  Elec       q    Type
REMARK                         _______ _______ _______ _____ _____    ______ ____
ROOT
ATOM      1  C   LIG    1        1.843  -1.386   0.333  0.00  0.00    -0.000 C 
ENDROOT
BRANCH   1   2
ATOM      2  C   LIG    1        1.263   0.037   0.245  0.00  0.00    +0.000 C 
BRANCH   2   3
ATOM      3  C   LIG    1       -0.278   0.061   0.241  0.00  0.00    +0.000 C 
BRANCH   3   4
ATOM      4  C   LIG    1       -0.889   1.462   0.041  0.00  0.00    +0.000 C 
BRANCH   4   5
ATOM      5  C   LIG    1       -0.628   2.443   1.201  0.00  0.00    +0.002 C 
BRANCH   5   6
ATOM      6  C   LIG    1       -1.287   3.817   0.983  0.00  0.00    +0.029 C 
BRANCH   6   7
ATOM      7  C   LIG    1       -1.039   4.791   2.143  0.00  0.00    +0.172 C 
BRANCH   7   8
ATOM      8  O   LIG    1       -1.655   6.030   1.843  0.00  0.00    -0.287 OA
BRANCH   8   9
ATOM      9  P   LIG    1       -1.828   7.141   3.147  0.00  0.00    +0.475 P 
ATOM     10  O   LIG    1       -2.963   6.673   4.031  0.00  0.00    -0.227 OA
BRANCH   9  11
ATOM     11  O   LIG    1       -0.451   7.469   3.687  0.00  0.00    -0.302 OA
ATOM     12  H   LIG    1       -0.533   8.095   4.423  0.00  0.00    +0.222 HD
ENDBRANCH   9  11
BRANCH   9  13
ATOM     13  O   LIG    1       -2.403   8.478   2.206  0.00  0.00    -0.289 OA
BRANCH  13  14
ATOM     14  C   LIG    1       -1.903   9.772   2.504  0.00  0.00    +0.154 C 
BRANCH  14  15
ATOM     15  C   LIG    1       -2.449  10.284   3.861  0.00  0.00    -0.047 C 
BRANCH  15  17
ATOM     16  C   LIG    1       -2.263  11.855   5.815  0.00  0.00    -0.093 C 
ATOM     17  N   LIG    1       -1.524  11.321   4.563  0.00  0.00    +0.376 N 
ATOM     18  C   LIG    1       -0.200  10.670   5.034  0.00  0.00    -0.093 C 
ATOM     19  C   LIG    1       -1.214  12.519   3.634  0.00  0.00    -0.093 C 
ENDBRANCH  15  17
ENDBRANCH  14  15
ENDBRANCH  13  14
ENDBRANCH   9  13
ENDBRANCH   8   9
ENDBRANCH   7   8
ENDBRANCH   6   7
ENDBRANCH   5   6
ENDBRANCH   4   5
ENDBRANCH   3   4
ENDBRANCH   2   3
ENDBRANCH   1   2
BRANCH   1  20
ATOM     20  C   LIG    1        3.383  -1.402   0.337  0.00  0.00    -0.000 C 
BRANCH  20  21
ATOM     21  C   LIG    1        3.971  -2.825   0.409  0.00  0.00    -0.000 C 
BRANCH  21  22
ATOM     22  C   LIG    1        5.509  -2.878   0.320  0.00  0.00    -0.000 C 
BRANCH  22  23
ATOM     23  C   LIG    1        6.239  -2.259   1.529  0.00  0.00    -0.000 C 
BRANCH  23  24
ATOM     24  C   LIG    1        7.771  -2.344   1.409  0.00  0.00    -0.000 C 
BRANCH  24  25
ATOM     25  C   LIG    1        8.504  -1.736   2.618  0.00  0.00    +0.000 C 
BRANCH  25  26
ATOM     26  C   LIG    1       10.035  -1.770   2.468  0.00  0.00    +0.000 C 
BRANCH  26  27
ATOM     27  C   LIG    1       10.773  -1.193   3.690  0.00  0.00    +0.000 C 
BRANCH  27  28
ATOM     28  C   LIG    1       12.302  -1.181   3.514  0.00  0.00    +0.000 C 
BRANCH  28  29
ATOM     29  C   LIG    1       13.046  -0.651   4.755  0.00  0.00    +0.005 C 
BRANCH  29  30
ATOM     30  C   LIG    1       14.581  -0.650   4.617  0.00  0.00    +0.035 C 
BRANCH  30  31
ATOM     31  C   LIG    1       15.103   0.322   3.567  0.00  0.00    -0.047 A 
ATOM     32  C   LIG    1       15.235   1.678   3.880  0.00  0.00    +0.004 A 
ATOM     33  C   LIG    1       15.707   2.570   2.921  0.00  0.00    +0.014 A 
ATOM     34  C   LIG    1       16.045   2.105   1.652  0.00  0.00    +0.013 A 
ATOM     35  I   LIG    1       16.752   3.446   0.211  0.00  0.00    -0.044 I 
ATOM     36  C   LIG    1       15.916   0.754   1.333  0.00  0.00    +0.014 A 
ATOM     37  C   LIG    1       15.445  -0.139   2.293  0.00  0.00    +0.004 A 
ENDBRANCH  30  31
ENDBRANCH  29  30
ENDBRANCH  28  29
ENDBRANCH  27  28
ENDBRANCH  26  27
ENDBRANCH  25  26
ENDBRANCH  24  25
ENDBRANCH  23  24
ENDBRANCH  22  23
ENDBRANCH  21  22
ENDBRANCH  20  21
ENDBRANCH   1  20
TORSDOF 25
