REMARK  Name = DB15199
REMARK                            x       y       z     vdW  Elec       q    Type
REMARK                         _______ _______ _______ _____ _____    ______ ____
ROOT
ATOM      1  N   LIG    1        0.803  -0.007  -0.707  0.00  0.00    -0.306 NA
ATOM      2  C   LIG    1        0.501  -0.634  -2.001  0.00  0.00    +0.066 C 
ATOM      3  C   LIG    1        0.710   0.334  -3.192  0.00  0.00    -0.063 C 
ATOM      4  N   LIG    1       -0.184   1.583  -2.995  0.00  0.00    +0.381 N 
ATOM      5  H   LIG    1       -1.145   1.270  -2.987  0.00  0.00    -0.082 HD
ATOM      6  C   LIG    1        0.130   2.229  -1.622  0.00  0.00    -0.063 C 
ATOM      7  C   LIG    1       -0.062   1.166  -0.513  0.00  0.00    +0.066 C 
ENDROOT
BRANCH   1   8
ATOM      8  C   LIG    1        2.240   0.201  -0.485  0.00  0.00    +0.086 C 
BRANCH   8   9
ATOM      9  C   LIG    1        2.573   0.671   0.946  0.00  0.00    +0.034 C 
BRANCH   9  10
ATOM     10  C   LIG    1        4.076   0.563   1.272  0.00  0.00    +0.105 C 
BRANCH  10  11
ATOM     11  N   LIG    1        4.437   1.093   2.585  0.00  0.00    -0.317 N 
ATOM     12  H   LIG    1        4.891   1.995   2.597  0.00  0.00    +0.149 HD
ATOM     13  C   LIG    1        4.215   0.459   3.750  0.00  0.00    +0.199 C 
ATOM     14  O   LIG    1        3.667  -0.648   3.810  0.00  0.00    -0.278 OA
BRANCH  13  15
ATOM     15  C   LIG    1        4.703   1.223   5.017  0.00  0.00    +0.013 C 
BRANCH  15  16
ATOM     16  N   LIG    1        3.917   0.710   6.198  0.00  0.00    +0.386 N 
ATOM     17  H   LIG    1        4.106  -0.275   6.317  0.00  0.00    -0.089 HD
ATOM     18  H   LIG    1        4.197   1.215   7.026  0.00  0.00    -0.089 HD
ATOM     19  H   LIG    1        2.932   0.857   6.028  0.00  0.00    -0.089 HD
ENDBRANCH  15  16
BRANCH  15  20
ATOM     20  C   LIG    1        6.229   1.086   5.279  0.00  0.00    -0.006 C 
BRANCH  20  21
ATOM     21  C   LIG    1        7.138   1.792   4.246  0.00  0.00    +0.014 C 
BRANCH  21  22
ATOM     22  C   LIG    1        8.636   1.834   4.606  0.00  0.00    +0.084 C 
BRANCH  22  23
ATOM     23  N   LIG    1        9.231   0.497   4.797  0.00  0.00    -0.283 NA
ATOM     24  H   LIG    1        9.425  -0.012   3.946  0.00  0.00    +0.125 HD
BRANCH  23  25
ATOM     25  C   LIG    1        9.519  -0.121   5.961  0.00  0.00    +0.167 C 
BRANCH  25  26
ATOM     26  N   LIG    1       10.046  -1.353   5.921  0.00  0.00    -0.297 NA
ATOM     27  H   LIG    1       10.225  -1.801   5.033  0.00  0.00    +0.121 HD
ATOM     28  H   LIG    1       10.276  -1.837   6.778  0.00  0.00    +0.121 HD
ENDBRANCH  25  26
BRANCH  25  29
ATOM     29  N   LIG    1        9.301   0.448   7.159  0.00  0.00    -0.297 NA
ATOM     30  H   LIG    1        8.916   1.381   7.213  0.00  0.00    +0.121 HD
ATOM     31  H   LIG    1        9.539  -0.045   8.008  0.00  0.00    +0.121 HD
ENDBRANCH  25  29
ENDBRANCH  23  25
ENDBRANCH  22  23
ENDBRANCH  21  22
ENDBRANCH  20  21
ENDBRANCH  15  20
ENDBRANCH  13  15
ENDBRANCH  10  11
ENDBRANCH   9  10
ENDBRANCH   8   9
ENDBRANCH   1   8
BRANCH   4  32
ATOM     32  C   LIG    1        0.020   2.571  -4.169  0.00  0.00    -0.077 C 
BRANCH  32  33
ATOM     33  C   LIG    1       -1.073   3.656  -4.184  0.00  0.00    +0.000 C 
BRANCH  33  34
ATOM     34  C   LIG    1       -0.980   4.556  -5.432  0.00  0.00    +0.102 C 
BRANCH  34  35
ATOM     35  N   LIG    1       -1.997   5.604  -5.488  0.00  0.00    -0.317 N 
ATOM     36  H   LIG    1       -1.689   6.543  -5.280  0.00  0.00    +0.149 HD
ATOM     37  C   LIG    1       -3.281   5.397  -5.830  0.00  0.00    +0.199 C 
ATOM     38  O   LIG    1       -3.721   4.276  -6.110  0.00  0.00    -0.278 OA
BRANCH  37  39
ATOM     39  C   LIG    1       -4.164   6.682  -5.856  0.00  0.00    +0.013 C 
BRANCH  39  40
ATOM     40  N   LIG    1       -5.478   6.352  -6.523  0.00  0.00    +0.386 N 
ATOM     41  H   LIG    1       -5.970   5.665  -5.969  0.00  0.00    -0.089 HD
ATOM     42  H   LIG    1       -6.033   7.193  -6.594  0.00  0.00    -0.089 HD
ATOM     43  H   LIG    1       -5.297   5.988  -7.448  0.00  0.00    -0.089 HD
ENDBRANCH  39  40
BRANCH  39  44
ATOM     44  C   LIG    1       -4.357   7.304  -4.444  0.00  0.00    -0.006 C 
BRANCH  44  45
ATOM     45  C   LIG    1       -5.119   8.651  -4.426  0.00  0.00    +0.014 C 
BRANCH  45  46
ATOM     46  C   LIG    1       -5.277   9.275  -3.024  0.00  0.00    +0.084 C 
BRANCH  46  47
ATOM     47  N   LIG    1       -4.016   9.814  -2.477  0.00  0.00    -0.283 NA
ATOM     48  H   LIG    1       -3.449   9.153  -1.965  0.00  0.00    +0.125 HD
BRANCH  47  49
ATOM     49  C   LIG    1       -3.540  11.069  -2.607  0.00  0.00    +0.167 C 
BRANCH  49  50
ATOM     50  N   LIG    1       -2.369  11.378  -2.033  0.00  0.00    -0.297 NA
ATOM     51  H   LIG    1       -1.861  10.682  -1.505  0.00  0.00    +0.121 HD
ATOM     52  H   LIG    1       -1.994  12.313  -2.113  0.00  0.00    +0.121 HD
ENDBRANCH  49  50
BRANCH  49  53
ATOM     53  N   LIG    1       -4.195  12.024  -3.290  0.00  0.00    -0.297 NA
ATOM     54  H   LIG    1       -5.081  11.818  -3.728  0.00  0.00    +0.121 HD
ATOM     55  H   LIG    1       -3.809  12.955  -3.358  0.00  0.00    +0.121 HD
ENDBRANCH  49  53
ENDBRANCH  47  49
ENDBRANCH  46  47
ENDBRANCH  45  46
ENDBRANCH  44  45
ENDBRANCH  39  44
ENDBRANCH  37  39
ENDBRANCH  34  35
ENDBRANCH  33  34
ENDBRANCH  32  33
ENDBRANCH   4  32
TORSDOF 26
