REMARK  Name = DB15099
REMARK                            x       y       z     vdW  Elec       q    Type
REMARK                         _______ _______ _______ _____ _____    ______ ____
ROOT
ATOM      1  CA  LIG    1        1.504  -0.116   0.358  0.00  0.00    +0.184 C 
ATOM      2  N   LIG    1        1.855  -0.722  -0.936  0.00  0.00    -0.331 N 
ATOM      3  H   LIG    1        1.394  -0.334  -1.746  0.00  0.00    +0.147 HD
ATOM      4  C   LIG    1        3.040  -1.474  -1.059  0.00  0.00    +0.037 A 
ATOM      5  C   LIG    1        3.329  -2.044  -2.301  0.00  0.00    +0.043 A 
ATOM      6  C   LIG    1        4.460  -2.839  -2.463  0.00  0.00    +0.043 A 
ATOM      7 CL   LIG    1        4.810  -3.546  -3.998  0.00  0.00    -0.083 Cl
ATOM      8  C   LIG    1        5.302  -3.074  -1.379  0.00  0.00    +0.021 A 
ATOM      9  C   LIG    1        5.020  -2.502  -0.139  0.00  0.00    +0.011 A 
ATOM     10  C   LIG    1        3.898  -1.676   0.043  0.00  0.00    -0.000 A 
ATOM     11  C   LIG    1        3.611  -1.029   1.359  0.00  0.00    -0.028 C 
ATOM     12  C   LIG    1        4.605  -0.623   2.208  0.00  0.00    +0.020 C 
ATOM     13  C   LIG    1        4.329   0.013   3.493  0.00  0.00    +0.247 C 
ATOM     14  O   LIG    1        3.364  -0.201   4.228  0.00  0.00    -0.270 OA
ATOM     15  N   LIG    1        5.382   0.848   3.763  0.00  0.00    -0.267 N 
ATOM     16  C   LIG    1        6.359   0.795   2.680  0.00  0.00    +0.119 C 
ATOM     17  C   LIG    1        6.084  -0.494   1.970  0.00  0.00    +0.060 C 
ATOM     18  C   LIG    1        2.094  -0.916   1.560  0.00  0.00    +0.070 C 
ENDROOT
BRANCH  15  19
ATOM     19  C   LIG    1        5.358   1.921   4.705  0.00  0.00    +0.037 A 
ATOM     20  C   LIG    1        4.640   1.841   5.913  0.00  0.00    +0.023 A 
ATOM     21  C   LIG    1        4.649   2.898   6.818  0.00  0.00    +0.002 A 
ATOM     22  C   LIG    1        5.383   4.046   6.535  0.00  0.00    +0.000 A 
ATOM     23  C   LIG    1        6.114   4.140   5.356  0.00  0.00    +0.002 A 
ATOM     24  C   LIG    1        6.107   3.083   4.450  0.00  0.00    +0.023 A 
ENDBRANCH  15  19
BRANCH   1  25
ATOM     25  C   LIG    1       -0.047  -0.043   0.417  0.00  0.00    +0.326 C 
ATOM     26  OXT LIG    1       -0.568   1.077   0.210  0.00  0.00    -0.249 OA
BRANCH  25  27
ATOM     27  O   LIG    1       -0.705  -1.086   0.653  0.00  0.00    -0.479 OA
ATOM     28  H   LIG    1       -1.189  -1.500  -0.034  0.00  0.00    +0.295 HD
ENDBRANCH  25  27
ENDBRANCH   1  25
TORSDOF 3
