REMARK  Name = DB15201
REMARK                            x       y       z     vdW  Elec       q    Type
REMARK                         _______ _______ _______ _____ _____    ______ ____
ROOT
ATOM      1  C   LIG    1        1.477  -0.012   0.000  0.00  0.00    +0.000 C 
ATOM      2  C   LIG    1        2.215  -1.136   0.000  0.00  0.00    +0.000 C 
ENDROOT
BRANCH   1   5
ATOM      3  C   LIG    1       -0.166   2.477   0.000  0.00  0.00    +0.044 C 
ATOM      4  C   LIG    1       -0.773   1.078   0.000  0.00  0.00    -0.050 C 
ATOM      5  C   LIG    1        0.022  -0.021   0.000  0.00  0.00    +0.003 C 
BRANCH   4   6
ATOM      6  C   LIG    1       -2.236   0.980   0.000  0.00  0.00    +0.003 C 
ATOM      7  C   LIG    1       -2.988  -0.141   0.000  0.00  0.00    +0.001 C 
BRANCH   7   8
ATOM      8  C   LIG    1       -4.444  -0.109   0.000  0.00  0.00    +0.003 C 
ATOM      9  C   LIG    1       -5.258  -1.194   0.000  0.00  0.00    -0.050 C 
ATOM     10  C   LIG    1       -4.675  -2.603   0.000  0.00  0.00    +0.044 C 
BRANCH   9  11
ATOM     11  C   LIG    1       -6.719  -1.072   0.000  0.00  0.00    +0.010 C 
ATOM     12  C   LIG    1       -7.455   0.067   0.000  0.00  0.00    +0.091 C 
BRANCH  12  13
ATOM     13  C   LIG    1       -9.008   0.135   0.000  0.00  0.00    +0.330 C 
ATOM     14  O   LIG    1       -9.458   1.302   0.000  0.00  0.00    -0.246 OA
BRANCH  13  15
ATOM     15  O   LIG    1       -9.628  -0.954   0.000  0.00  0.00    -0.478 OA
ATOM     16  H   LIG    1      -10.565  -0.960   0.000  0.00  0.00    +0.295 HD
ENDBRANCH  13  15
ENDBRANCH  12  13
ENDBRANCH   9  11
ENDBRANCH   7   8
ENDBRANCH   4   6
ENDBRANCH   1   5
BRANCH   2  17
ATOM     17  C   LIG    1        3.670  -1.127   0.000  0.00  0.00    +0.003 C 
ATOM     18  C   LIG    1        4.466  -2.226   0.000  0.00  0.00    -0.050 C 
ATOM     19  C   LIG    1        3.858  -3.625   0.000  0.00  0.00    +0.044 C 
BRANCH  18  20
ATOM     20  C   LIG    1        5.928  -2.128   0.000  0.00  0.00    +0.003 C 
ATOM     21  C   LIG    1        6.680  -1.007   0.000  0.00  0.00    +0.001 C 
BRANCH  21  22
ATOM     22  C   LIG    1        8.136  -1.040   0.000  0.00  0.00    +0.003 C 
ATOM     23  C   LIG    1        8.950   0.046   0.000  0.00  0.00    -0.050 C 
ATOM     24  C   LIG    1        8.367   1.455   0.000  0.00  0.00    +0.044 C 
BRANCH  23  25
ATOM     25  C   LIG    1       10.411  -0.076   0.000  0.00  0.00    +0.010 C 
ATOM     26  C   LIG    1       11.147  -1.215   0.000  0.00  0.00    +0.091 C 
BRANCH  26  27
ATOM     27  C   LIG    1       12.700  -1.283   0.000  0.00  0.00    +0.330 C 
ATOM     28  O   LIG    1       13.150  -2.451   0.000  0.00  0.00    -0.246 OA
BRANCH  27  29
ATOM     29  O   LIG    1       13.320  -0.194   0.000  0.00  0.00    -0.478 OA
ATOM     30  H   LIG    1       14.257  -0.189   0.000  0.00  0.00    +0.295 HD
ENDBRANCH  27  29
ENDBRANCH  26  27
ENDBRANCH  23  25
ENDBRANCH  21  22
ENDBRANCH  18  20
ENDBRANCH   2  17
TORSDOF 12
