REMARK  Name = DB15651
REMARK                            x       y       z     vdW  Elec       q    Type
REMARK                         _______ _______ _______ _____ _____    ______ ____
ROOT
ATOM      1  C   LIG    1       -1.350   3.791  -3.130  0.00  0.00    +0.050 C 
ENDROOT
BRANCH   1   2
ATOM      2  C   LIG    1       -1.633   5.203  -3.699  0.00  0.00    +0.049 C 
BRANCH   2   3
ATOM      3  C   LIG    1       -0.868   6.369  -3.034  0.00  0.00    +0.232 C 
BRANCH   3   4
ATOM      4  O   LIG    1        0.539   6.274  -3.246  0.00  0.00    -0.466 OA
BRANCH   4   5
ATOM      5  C   LIG    1        1.380   5.754  -2.304  0.00  0.00    +0.293 C 
ATOM      6  O   LIG    1        1.041   5.381  -1.179  0.00  0.00    -0.253 OA
BRANCH   5   7
ATOM      7  C   LIG    1        2.830   5.700  -2.759  0.00  0.00    +0.039 C 
BRANCH   7   8
ATOM      8  N   LIG    1        2.827   4.582  -3.768  0.00  0.00    +0.387 N 
ATOM      9  H   LIG    1        2.257   4.854  -4.556  0.00  0.00    -0.089 HD
ATOM     10  H   LIG    1        3.774   4.407  -4.070  0.00  0.00    -0.089 HD
ATOM     11  H   LIG    1        2.442   3.752  -3.338  0.00  0.00    -0.089 HD
ENDBRANCH   7   8
BRANCH   7  12
ATOM     12  C   LIG    1        3.433   7.047  -3.278  0.00  0.00    -0.021 C 
ATOM     13  C   LIG    1        3.054   8.289  -2.441  0.00  0.00    +0.006 C 
ATOM     14  C   LIG    1        4.967   6.964  -3.394  0.00  0.00    +0.006 C 
ENDBRANCH   7  12
ENDBRANCH   5   7
ENDBRANCH   4   5
ENDBRANCH   3   4
ENDBRANCH   2   3
ENDBRANCH   1   2
BRANCH   1  15
ATOM     15  C   LIG    1       -1.971   2.708  -4.056  0.00  0.00    +0.131 C 
BRANCH  15  16
ATOM     16  N   LIG    1       -1.613   1.328  -3.674  0.00  0.00    -0.314 N 
ATOM     17  C   LIG    1       -0.377   0.745  -3.706  0.00  0.00    +0.169 A 
ATOM     18  C   LIG    1       -0.571  -0.526  -3.234  0.00  0.00    +0.172 A 
ATOM     19  C   LIG    1        0.552  -1.434  -3.121  0.00  0.00    +0.280 A 
ATOM     20  O   LIG    1        0.561  -2.594  -2.713  0.00  0.00    -0.265 OA
ATOM     21  N   LIG    1        1.689  -0.793  -3.547  0.00  0.00    -0.293 N 
ATOM     22  H   LIG    1        2.529  -1.351  -3.506  0.00  0.00    +0.172 HD
ATOM     23  C   LIG    1        1.806   0.507  -4.016  0.00  0.00    +0.195 A 
ATOM     24  N   LIG    1       -1.858  -0.746  -2.921  0.00  0.00    -0.229 NA
ATOM     25  N   LIG    1        0.799   1.313  -4.111  0.00  0.00    -0.196 NA
ATOM     26  C   LIG    1       -2.457   0.387  -3.203  0.00  0.00    +0.201 A 
BRANCH  23  27
ATOM     27  N   LIG    1        3.039   0.891  -4.373  0.00  0.00    -0.329 N 
ATOM     28  H   LIG    1        3.821   0.258  -4.282  0.00  0.00    +0.145 HD
ATOM     29  H   LIG    1        3.194   1.804  -4.773  0.00  0.00    +0.145 HD
ENDBRANCH  23  27
ENDBRANCH  15  16
ENDBRANCH   1  15
BRANCH   1  30
ATOM     30  C   LIG    1       -1.801   3.676  -1.652  0.00  0.00    +0.237 C 
BRANCH  30  31
ATOM     31  O   LIG    1       -1.261   2.500  -1.068  0.00  0.00    -0.464 OA
BRANCH  31  32
ATOM     32  C   LIG    1       -1.430   2.217   0.236  0.00  0.00    +0.307 C 
ATOM     33  O   LIG    1       -2.009   2.921   1.064  0.00  0.00    -0.251 OA
BRANCH  32  34
ATOM     34  C   LIG    1       -0.824   0.865   0.622  0.00  0.00    +0.120 C 
BRANCH  34  35
ATOM     35  C   LIG    1        0.659   0.709   0.225  0.00  0.00    +0.011 C 
BRANCH  35  36
ATOM     36  C   LIG    1        1.189  -0.707   0.501  0.00  0.00    +0.001 C 
BRANCH  36  37
ATOM     37  C   LIG    1        2.657  -0.893   0.076  0.00  0.00    +0.000 C 
BRANCH  37  38
ATOM     38  C   LIG    1        3.127  -2.354   0.188  0.00  0.00    +0.000 C 
BRANCH  38  39
ATOM     39  C   LIG    1        4.595  -2.547  -0.239  0.00  0.00    +0.000 C 
BRANCH  39  40
ATOM     40  C   LIG    1        5.062  -4.016  -0.259  0.00  0.00    -0.000 C 
BRANCH  40  41
ATOM     41  C   LIG    1        5.080  -4.699   1.123  0.00  0.00    -0.000 C 
BRANCH  41  42
ATOM     42  C   LIG    1        5.631  -6.135   1.075  0.00  0.00    -0.000 C 
BRANCH  42  43
ATOM     43  C   LIG    1        5.647  -6.819   2.454  0.00  0.00    -0.000 C 
BRANCH  43  44
ATOM     44  C   LIG    1        6.202  -8.254   2.404  0.00  0.00    -0.000 C 
BRANCH  44  45
ATOM     45  C   LIG    1        6.224  -8.938   3.785  0.00  0.00    -0.000 C 
BRANCH  45  46
ATOM     46  C   LIG    1        6.679 -10.411   3.758  0.00  0.00    -0.000 C 
BRANCH  46  47
ATOM     47  C   LIG    1        8.151 -10.615   3.350  0.00  0.00    -0.000 C 
BRANCH  47  48
ATOM     48  C   LIG    1        8.588 -12.090   3.405  0.00  0.00    -0.000 C 
BRANCH  48  49
ATOM     49  C   LIG    1       10.059 -12.296   3.000  0.00  0.00    -0.003 C 
ATOM     50  C   LIG    1       10.488 -13.770   3.031  0.00  0.00    +0.004 C 
ENDBRANCH  48  49
ENDBRANCH  47  48
ENDBRANCH  46  47
ENDBRANCH  45  46
ENDBRANCH  44  45
ENDBRANCH  43  44
ENDBRANCH  42  43
ENDBRANCH  41  42
ENDBRANCH  40  41
ENDBRANCH  39  40
ENDBRANCH  38  39
ENDBRANCH  37  38
ENDBRANCH  36  37
ENDBRANCH  35  36
ENDBRANCH  34  35
ENDBRANCH  32  34
ENDBRANCH  31  32
ENDBRANCH  30  31
ENDBRANCH   1  30
TORSDOF 29
