REMARK  Name = DB15335
REMARK                            x       y       z     vdW  Elec       q    Type
REMARK                         _______ _______ _______ _____ _____    ______ ____
ROOT
ATOM      1  C   LIG    1        5.675   0.014   0.022  0.00  0.00    +0.064 A 
ATOM      2  C   LIG    1        6.392   0.013  -1.267  0.00  0.00    +0.200 A 
ATOM      3  O   LIG    1        5.848   0.026  -2.373  0.00  0.00    -0.286 OA
ATOM      4  C   LIG    1        7.885  -0.006  -1.119  0.00  0.00    +0.065 A 
ATOM      5  C   LIG    1        8.730  -0.011  -2.238  0.00  0.00    +0.019 A 
ATOM      6  C   LIG    1       10.117  -0.024  -2.081  0.00  0.00    +0.046 A 
ATOM      7  C   LIG    1       10.679  -0.032  -0.805  0.00  0.00    +0.120 A 
ATOM      8  C   LIG    1        9.855  -0.029   0.319  0.00  0.00    +0.092 A 
ATOM      9  C   LIG    1        8.471  -0.017   0.161  0.00  0.00    +0.142 A 
ATOM     10  O   LIG    1        7.712  -0.016   1.314  0.00  0.00    -0.462 OA
ATOM     11  C   LIG    1        6.361   0.000   1.186  0.00  0.00    +0.208 A 
ENDROOT
BRANCH   1  15
ATOM     12  C   LIG    1        1.399   0.067  -0.000  0.00  0.00    +0.120 A 
ATOM     13  C   LIG    1        2.092  -1.145  -0.005  0.00  0.00    +0.046 A 
ATOM     14  C   LIG    1        3.483  -1.165   0.007  0.00  0.00    +0.012 A 
ATOM     15  C   LIG    1        4.201   0.032   0.030  0.00  0.00    -0.011 A 
ATOM     16  C   LIG    1        3.516   1.249   0.028  0.00  0.00    +0.012 A 
ATOM     17  C   LIG    1        2.124   1.269   0.016  0.00  0.00    +0.046 A 
BRANCH  12  19
ATOM     18  C   LIG    1       -0.744   1.190  -0.016  0.00  0.00    +0.277 C 
ATOM     19  O   LIG    1        0.020  -0.012  -0.015  0.00  0.00    -0.495 OA
ENDBRANCH  12  19
ENDBRANCH   1  15
BRANCH   7  20
ATOM     20  O   LIG    1       12.039  -0.042  -0.654  0.00  0.00    -0.507 OA
ATOM     21  H   LIG    1       12.507  -0.041  -1.492  0.00  0.00    +0.292 HD
ENDBRANCH   7  20
TORSDOF 3
