REMARK  Name = DB15566
REMARK                            x       y       z     vdW  Elec       q    Type
REMARK                         _______ _______ _______ _____ _____    ______ ____
ROOT
ATOM      1  C   LIG    1        1.481  -0.079   0.135  0.00  0.00    +0.133 C 
ATOM      2  C   LIG    1        1.939   0.121   1.633  0.00  0.00    +0.009 C 
ATOM      3  C   LIG    1        3.377   0.639   1.379  0.00  0.00    +0.002 C 
ATOM      4  C   LIG    1        4.149   0.998   2.680  0.00  0.00    -0.000 C 
ATOM      5  C   LIG    1        4.248  -0.270   3.601  0.00  0.00    +0.035 C 
ATOM      6  C   LIG    1        5.101  -0.005   4.906  0.00  0.00    +0.013 C 
ATOM      7  C   LIG    1        6.476   0.564   4.452  0.00  0.00    -0.056 C 
ATOM      8  C   LIG    1        7.662  -0.022   4.747  0.00  0.00    +0.051 C 
ATOM      9  C   LIG    1        7.825  -1.254   5.519  0.00  0.00    +0.179 C 
ATOM     10  O   LIG    1        8.920  -1.748   5.775  0.00  0.00    -0.288 OA
ATOM     11  C   LIG    1        6.560  -1.843   5.948  0.00  0.00    +0.047 C 
ATOM     12  C   LIG    1        6.391   1.832   3.605  0.00  0.00    +0.032 C 
ATOM     13  C   LIG    1        5.352  -1.307   5.684  0.00  0.00    -0.012 C 
ATOM     14  C   LIG    1        4.472   1.003   5.907  0.00  0.00    +0.020 C 
ATOM     15  C   LIG    1        2.857  -0.976   3.821  0.00  0.00    +0.120 C 
ATOM     16  C   LIG    1        5.565   1.526   2.347  0.00  0.00    +0.008 C 
ATOM     17  C   LIG    1        3.243   1.674   0.252  0.00  0.00    +0.008 C 
ATOM     18  C   LIG    1        2.090  -1.180   2.482  0.00  0.00    +0.041 C 
ATOM     19  C   LIG    1        1.041   1.177   2.371  0.00  0.00    +0.015 C 
ATOM     20  C   LIG    1        2.029   1.200  -0.575  0.00  0.00    +0.043 C 
ENDROOT
BRANCH   1  21
ATOM     21  C   LIG    1       -0.066  -0.239  -0.015  0.00  0.00    +0.202 C 
ATOM     22  O   LIG    1       -0.792   0.738  -0.218  0.00  0.00    -0.291 OA
BRANCH  21  23
ATOM     23  C   LIG    1       -0.673  -1.652   0.089  0.00  0.00    +0.309 C 
BRANCH  23  24
ATOM     24  O   LIG    1       -2.094  -1.596   0.175  0.00  0.00    -0.457 OA
BRANCH  24  26
ATOM     25  C   LIG    1       -4.313  -2.441   0.395  0.00  0.00    +0.136 C 
ATOM     26  C   LIG    1       -2.818  -2.723   0.325  0.00  0.00    +0.304 C 
ATOM     27  O   LIG    1       -2.377  -3.870   0.402  0.00  0.00    -0.251 OA
ENDBRANCH  24  26
ENDBRANCH  23  24
ENDBRANCH  21  23
ENDBRANCH   1  21
BRANCH   1  28
ATOM     28  O   LIG    1        2.047  -1.234  -0.480  0.00  0.00    -0.380 OA
ATOM     29  H   LIG    1        3.003  -1.141  -0.478  0.00  0.00    +0.211 HD
ENDBRANCH   1  28
BRANCH  15  30
ATOM     30  O   LIG    1        2.024  -0.355   4.779  0.00  0.00    -0.391 OA
ATOM     31  H   LIG    1        2.490  -0.331   5.617  0.00  0.00    +0.210 HD
ENDBRANCH  15  30
TORSDOF 6
