REMARK  Name = DB15299
REMARK                            x       y       z     vdW  Elec       q    Type
REMARK                         _______ _______ _______ _____ _____    ______ ____
ROOT
ATOM      1  N   LIG    1        1.537  -0.179  -0.194  0.00  0.00    -0.289 N 
ATOM      2  C   LIG    1        2.307  -1.327  -0.188  0.00  0.00    +0.223 C 
ATOM      3  O   LIG    1        1.801  -2.453  -0.157  0.00  0.00    -0.275 OA
ATOM      4  C   LIG    1        3.874  -1.169  -0.169  0.00  0.00    +0.055 C 
ATOM      5  C   LIG    1        4.237  -1.075   1.340  0.00  0.00    +0.021 C 
ATOM      6  C   LIG    1        4.400   0.117  -0.876  0.00  0.00    +0.026 C 
ATOM      7  C   LIG    1        3.397   1.268  -1.031  0.00  0.00    +0.045 C 
ATOM      8  C   LIG    1        2.172   1.173  -0.075  0.00  0.00    +0.114 C 
ENDROOT
BRANCH   7   9
ATOM      9  C   LIG    1        4.112   2.627  -1.022  0.00  0.00    -0.041 A 
ATOM     10  C   LIG    1        4.221   3.385  -2.194  0.00  0.00    +0.024 A 
ATOM     11  C   LIG    1        4.854   4.629  -2.174  0.00  0.00    +0.041 A 
ATOM     12 CL   LIG    1        4.974   5.558  -3.623  0.00  0.00    -0.084 Cl
ATOM     13  C   LIG    1        5.386   5.122  -0.983  0.00  0.00    +0.020 A 
ATOM     14  C   LIG    1        5.286   4.371   0.189  0.00  0.00    +0.002 A 
ATOM     15  C   LIG    1        4.652   3.129   0.169  0.00  0.00    +0.004 A 
ENDBRANCH   7   9
BRANCH   8  16
ATOM     16  C   LIG    1        1.270   2.410  -0.244  0.00  0.00    -0.026 A 
ATOM     17  C   LIG    1        0.704   2.722  -1.485  0.00  0.00    +0.007 A 
ATOM     18  C   LIG    1       -0.083   3.861  -1.630  0.00  0.00    +0.020 A 
ATOM     19  C   LIG    1       -0.296   4.696  -0.536  0.00  0.00    +0.041 A 
ATOM     20 CL   LIG    1       -1.270   6.109  -0.716  0.00  0.00    -0.084 Cl
ATOM     21  C   LIG    1        0.277   4.403   0.700  0.00  0.00    +0.020 A 
ATOM     22  C   LIG    1        1.065   3.265   0.843  0.00  0.00    +0.007 A 
ENDBRANCH   8  16
BRANCH   1  23
ATOM     23  C   LIG    1        0.049  -0.323  -0.038  0.00  0.00    +0.100 C 
BRANCH  23  25
ATOM     24  C   LIG    1       -0.167  -0.587  -2.633  0.00  0.00    +0.009 C 
ATOM     25  C   LIG    1       -0.664  -1.042  -1.244  0.00  0.00    +0.005 C 
ATOM     26  C   LIG    1       -2.205  -0.927  -1.199  0.00  0.00    +0.009 C 
ENDBRANCH  23  25
BRANCH  23  27
ATOM     27  C   LIG    1       -0.399  -0.915   1.336  0.00  0.00    +0.188 C 
BRANCH  27  28
ATOM     28  S   LIG    1        0.139   0.136   2.821  0.00  0.00    -0.027 S 
ATOM     29  O   LIG    1       -0.551   1.427   2.728  0.00  0.00    -0.174 OA
ATOM     30  O   LIG    1        1.601   0.106   2.921  0.00  0.00    -0.174 OA
BRANCH  28  31
ATOM     31  C   LIG    1       -0.549  -0.777   4.345  0.00  0.00    +0.124 C 
ATOM     32  C   LIG    1       -2.085  -0.834   4.289  0.00  0.00    +0.031 C 
ATOM     33  C   LIG    1        0.095  -2.169   4.467  0.00  0.00    +0.031 C 
ENDBRANCH  28  31
ENDBRANCH  27  28
ENDBRANCH  23  27
ENDBRANCH   1  23
BRANCH   4  34
ATOM     34  C   LIG    1        4.542  -2.461  -0.795  0.00  0.00    +0.136 C 
BRANCH  34  35
ATOM     35  C   LIG    1        4.292  -2.821  -2.291  0.00  0.00    +0.306 C 
ATOM     36  O   LIG    1        4.903  -3.826  -2.717  0.00  0.00    -0.251 OA
BRANCH  35  37
ATOM     37  O   LIG    1        3.521  -2.131  -2.999  0.00  0.00    -0.481 OA
ATOM     38  H   LIG    1        3.380  -2.359  -3.897  0.00  0.00    +0.295 HD
ENDBRANCH  35  37
ENDBRANCH  34  35
ENDBRANCH   4  34
TORSDOF 10
