REMARK  Name = DB15109
REMARK                            x       y       z     vdW  Elec       q    Type
REMARK                         _______ _______ _______ _____ _____    ______ ____
ROOT
ATOM      1  C   LIG    1        1.481  -0.043   0.148  0.00  0.00    +0.238 C 
ATOM      2  C   LIG    1        2.124  -0.650  -1.135  0.00  0.00    +0.152 C 
ATOM      3  C   LIG    1        3.599  -0.037  -1.370  0.00  0.00    +0.179 C 
ATOM      4  C   LIG    1        4.543  -0.506  -2.537  0.00  0.00    -0.017 C 
ATOM      5  C   LIG    1        4.416  -1.668  -3.233  0.00  0.00    -0.012 C 
ATOM      6  C   LIG    1        3.271  -2.617  -3.005  0.00  0.00    +0.083 C 
ATOM      7  C   LIG    1        3.188  -2.943  -1.524  0.00  0.00    +0.153 C 
ATOM      8  O   LIG    1        3.954  -3.731  -0.964  0.00  0.00    -0.296 OA
ATOM      9  C   LIG    1        2.935  -3.847  -3.847  0.00  0.00    +0.013 C 
ATOM     10  C   LIG    1        1.948  -3.882  -4.998  0.00  0.00    -0.028 C 
ATOM     11  C   LIG    1        1.555  -2.571  -5.719  0.00  0.00    +0.011 C 
ATOM     12  C   LIG    1        2.089  -5.051  -5.991  0.00  0.00    +0.011 C 
ATOM     13  C   LIG    1        1.440  -4.230  -3.615  0.00  0.00    -0.000 C 
ATOM     14  C   LIG    1        0.454  -3.279  -2.828  0.00  0.00    +0.009 C 
ATOM     15  C   LIG    1        0.705  -2.989  -1.292  0.00  0.00    +0.006 C 
ATOM     16  C   LIG    1        0.473  -4.314  -0.516  0.00  0.00    +0.009 C 
ATOM     17  C   LIG    1        2.035  -2.215  -0.836  0.00  0.00    +0.086 C 
ATOM     18  C   LIG    1        2.191  -2.199   0.687  0.00  0.00    -0.007 C 
ATOM     19  C   LIG    1        1.881  -1.012   1.238  0.00  0.00    -0.033 C 
ATOM     20  C   LIG    1        1.842  -0.608   2.695  0.00  0.00    +0.042 C 
ENDROOT
BRANCH   2  21
ATOM     21  O   LIG    1        1.403  -0.214  -2.286  0.00  0.00    -0.380 OA
ATOM     22  H   LIG    1        1.180   0.713  -2.169  0.00  0.00    +0.211 HD
ENDBRANCH   2  21
BRANCH   3  23
ATOM     23  O   LIG    1        3.523   1.382  -1.409  0.00  0.00    -0.384 OA
ATOM     24  H   LIG    1        3.108   1.640  -2.235  0.00  0.00    +0.210 HD
ENDBRANCH   3  23
BRANCH   1  25
ATOM     25  O   LIG    1        0.051   0.028   0.120  0.00  0.00    -0.450 OA
BRANCH  25  26
ATOM     26  C   LIG    1       -0.619   1.137  -0.261  0.00  0.00    +0.345 C 
ATOM     27  O   LIG    1       -0.085   2.180  -0.643  0.00  0.00    -0.245 OA
BRANCH  26  29
ATOM     28  C   LIG    1       -3.069   1.868  -0.562  0.00  0.00    +0.098 A 
ATOM     29  C   LIG    1       -2.072   0.940  -0.194  0.00  0.00    +0.124 A 
ATOM     30  C   LIG    1       -2.797  -0.178   0.228  0.00  0.00    +0.151 A 
ATOM     31  O   LIG    1       -4.119   0.081   0.073  0.00  0.00    -0.359 OA
ATOM     32  N   LIG    1       -4.277   1.368  -0.424  0.00  0.00    -0.082 NA
BRANCH  28  34
ATOM     33  C   LIG    1       -2.570   4.293   0.026  0.00  0.00    +0.010 C 
ATOM     34  C   LIG    1       -2.938   3.292  -1.081  0.00  0.00    +0.056 C 
ENDBRANCH  28  34
BRANCH  30  35
ATOM     35  C   LIG    1       -2.473  -1.559   0.780  0.00  0.00    +0.075 C 
ATOM     36  C   LIG    1       -3.222  -1.865   2.087  0.00  0.00    +0.012 C 
ENDBRANCH  30  35
ENDBRANCH  26  29
ENDBRANCH  25  26
ENDBRANCH   1  25
BRANCH   4  37
ATOM     37  C   LIG    1        5.817   0.296  -2.809  0.00  0.00    +0.189 C 
BRANCH  37  38
ATOM     38  O   LIG    1        5.501   1.449  -3.562  0.00  0.00    -0.391 OA
ATOM     39  H   LIG    1        6.303   1.964  -3.682  0.00  0.00    +0.210 HD
ENDBRANCH  37  38
ENDBRANCH   4  37
TORSDOF 9
