REMARK  Name = DB15041
REMARK                            x       y       z     vdW  Elec       q    Type
REMARK                         _______ _______ _______ _____ _____    ______ ____
ROOT
ATOM      1  C   LIG    1       -0.041   0.147  -0.056  0.00  0.00    +0.009 C 
ENDROOT
BRANCH   1   2
ATOM      2  CA  LIG    1       -0.531   1.623  -0.113  0.00  0.00    +0.036 C 
BRANCH   2   3
ATOM      3  N   LIG    1       -2.029   1.648   0.236  0.00  0.00    +0.387 N 
ATOM      4  H1  LIG    1       -2.549   1.094  -0.430  0.00  0.00    -0.089 HD
ATOM      5  H2  LIG    1       -2.172   1.262   1.158  0.00  0.00    -0.089 HD
ATOM      6  H3  LIG    1       -2.373   2.597   0.226  0.00  0.00    -0.089 HD
ENDBRANCH   2   3
BRANCH   2   7
ATOM      7  C   LIG    1       -0.339   2.261  -1.516  0.00  0.00    +0.290 C 
ATOM      8  OXT LIG    1        0.811   2.677  -1.779  0.00  0.00    -0.253 OA
BRANCH   7   9
ATOM      9  O   LIG    1       -1.298   2.320  -2.323  0.00  0.00    -0.482 OA
ATOM     10  H   LIG    1       -1.177   2.706  -3.168  0.00  0.00    +0.295 HD
ENDBRANCH   7   9
ENDBRANCH   2   7
ENDBRANCH   1   2
BRANCH   1  11
ATOM     11  C   LIG    1        1.501  -0.061   0.089  0.00  0.00    +0.097 C 
BRANCH  11  12
ATOM     12  C   LIG    1        2.067   0.611   1.373  0.00  0.00    +0.308 C 
ATOM     13  O   LIG    1        1.519   0.361   2.473  0.00  0.00    -0.251 OA
BRANCH  12  14
ATOM     14  O   LIG    1        3.061   1.361   1.241  0.00  0.00    -0.480 OA
ATOM     15  H   LIG    1        3.431   1.785   1.991  0.00  0.00    +0.295 HD
ENDBRANCH  12  14
ENDBRANCH  11  12
BRANCH  11  16
ATOM     16  C   LIG    1        1.911  -1.562   0.070  0.00  0.00    +0.017 C 
BRANCH  16  17
ATOM     17  C   LIG    1        1.720  -2.254  -1.296  0.00  0.00    +0.034 C 
BRANCH  17  18
ATOM     18  C   LIG    1        2.227  -3.703  -1.307  0.00  0.00    +0.213 C 
ATOM     19  F   LIG    1        2.059  -4.306  -2.483  0.00  0.00    -0.249 F 
ENDBRANCH  17  18
ENDBRANCH  16  17
ENDBRANCH  11  16
ENDBRANCH   1  11
TORSDOF 10
