REMARK  Name = DB15034
REMARK                            x       y       z     vdW  Elec       q    Type
REMARK                         _______ _______ _______ _____ _____    ______ ____
ROOT
ATOM      1  C   LIG    1       -2.335   1.928   4.166  0.00  0.00    +0.032 C 
ATOM      2  C   LIG    1       -1.862   1.232   2.863  0.00  0.00    +0.113 C 
ATOM      3  N   LIG    1       -1.465  -0.205   2.979  0.00  0.00    -0.289 N 
ATOM      4  C   LIG    1       -0.691  -0.853   2.046  0.00  0.00    +0.237 C 
ATOM      5  O   LIG    1       -0.487  -2.069   2.079  0.00  0.00    -0.274 OA
ATOM      6  C   LIG    1       -0.046   0.018   0.919  0.00  0.00    +0.168 C 
ATOM      7  N   LIG    1       -0.564   1.394   0.833  0.00  0.00    -0.267 N 
ATOM      8  C   LIG    1       -1.022   1.927  -0.349  0.00  0.00    +0.233 C 
ATOM      9  C   LIG    1       -1.479   3.417  -0.301  0.00  0.00    +0.201 C 
ATOM     10  N   LIG    1       -2.003   3.757   1.027  0.00  0.00    -0.216 NA
ATOM     11  N   LIG    1       -1.002   3.486   1.999  0.00  0.00    -0.195 N 
ATOM     12  C   LIG    1       -0.025   4.369   2.333  0.00  0.00    +0.318 C 
ATOM     13  N   LIG    1        1.083   4.285   1.569  0.00  0.00    -0.294 N 
ATOM     14  H   LIG    1        1.047   3.682   0.760  0.00  0.00    +0.151 HD
ATOM     15  O   LIG    1       -0.130   5.123   3.300  0.00  0.00    -0.251 OA
ATOM     16  C   LIG    1       -2.641   5.070   1.108  0.00  0.00    +0.128 C 
ATOM     17  O   LIG    1       -1.011   1.308  -1.414  0.00  0.00    -0.274 OA
ATOM     18  C   LIG    1       -0.737   2.041   2.161  0.00  0.00    +0.204 C 
ENDROOT
BRANCH   3  19
ATOM     19  C   LIG    1       -1.919  -0.986   4.153  0.00  0.00    +0.145 C 
BRANCH  19  20
ATOM     20  C   LIG    1       -1.051  -0.881   5.419  0.00  0.00    -0.004 A 
ATOM     21  C   LIG    1       -1.558  -1.402   6.651  0.00  0.00    +0.076 A 
ATOM     22  N   LIG    1       -2.791  -1.994   6.689  0.00  0.00    -0.255 NA
ATOM     23  C   LIG    1       -3.251  -2.478   7.868  0.00  0.00    +0.111 A 
ATOM     24  C   LIG    1       -2.534  -2.408   9.058  0.00  0.00    +0.020 A 
ATOM     25  C   LIG    1       -1.277  -1.812   9.048  0.00  0.00    +0.011 A 
ATOM     26  C   LIG    1       -0.759  -1.293   7.834  0.00  0.00    +0.001 A 
ATOM     27  C   LIG    1        0.512  -0.676   7.765  0.00  0.00    +0.010 A 
ATOM     28  C   LIG    1        0.982  -0.179   6.555  0.00  0.00    +0.001 A 
ATOM     29  C   LIG    1        0.214  -0.278   5.402  0.00  0.00    +0.007 A 
ENDBRANCH  19  20
ENDBRANCH   3  19
BRANCH   6  30
ATOM     30  C   LIG    1        1.505  -0.034   1.016  0.00  0.00    +0.067 C 
BRANCH  30  31
ATOM     31  C   LIG    1        2.144  -1.353   0.596  0.00  0.00    -0.045 A 
ATOM     32  C   LIG    1        2.133  -1.736  -0.748  0.00  0.00    +0.007 A 
ATOM     33  C   LIG    1        2.730  -2.932  -1.136  0.00  0.00    +0.046 A 
ATOM     34  C   LIG    1        3.345  -3.749  -0.182  0.00  0.00    +0.132 A 
ATOM     35  C   LIG    1        3.348  -3.368   1.160  0.00  0.00    +0.046 A 
ATOM     36  C   LIG    1        2.753  -2.171   1.550  0.00  0.00    +0.007 A 
BRANCH  34  37
ATOM     37  O   LIG    1        3.943  -4.937  -0.515  0.00  0.00    -0.404 OA
BRANCH  37  38
ATOM     38  P   LIG    1        4.387  -5.575  -2.098  0.00  0.00    +0.528 P 
ATOM     39  O   LIG    1        5.410  -6.691  -1.818  0.00  0.00    -0.216 OA
BRANCH  38  40
ATOM     40  O   LIG    1        4.992  -4.399  -2.887  0.00  0.00    -0.293 OA
ATOM     41  H   LIG    1        4.311  -3.725  -3.037  0.00  0.00    +0.223 HD
ENDBRANCH  38  40
BRANCH  38  42
ATOM     42  O   LIG    1        3.079  -6.104  -2.717  0.00  0.00    -0.293 OA
ATOM     43  H   LIG    1        2.473  -5.363  -2.873  0.00  0.00    +0.223 HD
ENDBRANCH  38  42
ENDBRANCH  37  38
ENDBRANCH  34  37
ENDBRANCH  30  31
ENDBRANCH   6  30
BRANCH  13  44
ATOM     44  C   LIG    1        2.423   4.638   2.032  0.00  0.00    +0.141 C 
BRANCH  44  45
ATOM     45  C   LIG    1        2.990   3.605   2.999  0.00  0.00    -0.030 A 
ATOM     46  C   LIG    1        2.878   3.800   4.378  0.00  0.00    +0.005 A 
ATOM     47  C   LIG    1        3.390   2.850   5.259  0.00  0.00    +0.000 A 
ATOM     48  C   LIG    1        4.025   1.716   4.758  0.00  0.00    +0.000 A 
ATOM     49  C   LIG    1        4.161   1.527   3.385  0.00  0.00    +0.000 A 
ATOM     50  C   LIG    1        3.650   2.476   2.504  0.00  0.00    +0.005 A 
ENDBRANCH  44  45
ENDBRANCH  13  44
TORSDOF 10
