REMARK  Name = DB15232
REMARK                            x       y       z     vdW  Elec       q    Type
REMARK                         _______ _______ _______ _____ _____    ______ ____
ROOT
ATOM      1  C   LIG    1       -1.075   3.897  -0.886  0.00  0.00    +0.147 A 
ATOM      2  C   LIG    1       -0.335   3.385  -1.955  0.00  0.00    +0.047 A 
ATOM      3  C   LIG    1        0.194   2.100  -1.843  0.00  0.00    +0.028 A 
ATOM      4  C   LIG    1       -0.041   1.397  -0.660  0.00  0.00    +0.064 A 
ATOM      5  N   LIG    1       -0.759   1.928   0.366  0.00  0.00    -0.152 NA
ATOM      6  N   LIG    1       -1.271   3.166   0.253  0.00  0.00    -0.134 NA
ENDROOT
BRANCH   1   8
ATOM      7  C   LIG    1       -2.538   5.814  -0.301  0.00  0.00    +0.223 C 
ATOM      8  N   LIG    1       -1.586   5.198  -1.037  0.00  0.00    -0.269 N 
ATOM      9  H   LIG    1       -1.209   5.715  -1.817  0.00  0.00    +0.156 HD
ATOM     10  O   LIG    1       -3.144   5.299   0.640  0.00  0.00    -0.275 OA
BRANCH   7  11
ATOM     11  C   LIG    1       -2.879   7.252  -0.716  0.00  0.00    +0.131 C 
BRANCH  11  16
ATOM     12  C   LIG    1       -6.662   7.595  -1.214  0.00  0.00    +0.130 A 
ATOM     13  C   LIG    1       -6.761   7.413  -2.604  0.00  0.00    +0.046 A 
ATOM     14  C   LIG    1       -5.620   7.185  -3.372  0.00  0.00    +0.004 A 
ATOM     15  C   LIG    1       -4.366   7.139  -2.765  0.00  0.00    +0.004 A 
ATOM     16  C   LIG    1       -4.247   7.329  -1.385  0.00  0.00    -0.035 A 
ATOM     17  C   LIG    1       -5.398   7.546  -0.620  0.00  0.00    +0.050 A 
BRANCH  12  18
ATOM     18  O   LIG    1       -7.734   7.820  -0.369  0.00  0.00    -0.406 OA
BRANCH  18  20
ATOM     19  F   LIG    1       -9.871   8.153   0.143  0.00  0.00    -0.133 F 
ATOM     20  C   LIG    1       -9.059   7.921  -0.888  0.00  0.00    +0.575 C 
ATOM     21  F   LIG    1       -9.181   8.946  -1.734  0.00  0.00    -0.133 F 
ATOM     22  F   LIG    1       -9.454   6.783  -1.462  0.00  0.00    -0.133 F 
ENDBRANCH  18  20
ENDBRANCH  12  18
ENDBRANCH  11  16
ENDBRANCH   7  11
ENDBRANCH   1   8
BRANCH   4  23
ATOM     23  C   LIG    1        0.509  -0.006  -0.453  0.00  0.00    +0.057 C 
BRANCH  23  24
ATOM     24  C   LIG    1        2.000  -0.007  -0.069  0.00  0.00    +0.007 C 
BRANCH  24  25
ATOM     25  C   LIG    1        2.564  -1.426   0.136  0.00  0.00    +0.007 C 
BRANCH  25  26
ATOM     26  C   LIG    1        4.080  -1.464   0.415  0.00  0.00    +0.065 C 
BRANCH  26  27
ATOM     27  C   LIG    1        4.482  -0.745   1.689  0.00  0.00    +0.104 A 
ATOM     28  S   LIG    1        4.023  -1.257   3.293  0.00  0.00    -0.035 S 
ATOM     29  C   LIG    1        4.915   0.100   3.905  0.00  0.00    +0.188 A 
ATOM     30  N   LIG    1        5.472   0.834   2.968  0.00  0.00    -0.126 NA
ATOM     31  N   LIG    1        5.219   0.343   1.694  0.00  0.00    -0.145 NA
BRANCH  29  32
ATOM     32  N   LIG    1        4.966   0.278   5.280  0.00  0.00    -0.263 N 
ATOM     33  H   LIG    1        4.440  -0.385   5.831  0.00  0.00    +0.157 HD
ATOM     34  C   LIG    1        5.650   1.237   5.941  0.00  0.00    +0.224 C 
ATOM     35  O   LIG    1        6.339   2.108   5.406  0.00  0.00    -0.275 OA
BRANCH  34  36
ATOM     36  C   LIG    1        5.552   1.196   7.478  0.00  0.00    +0.151 C 
BRANCH  36  37
ATOM     37  C   LIG    1        5.049   2.475   8.162  0.00  0.00    +0.050 A 
ATOM     38  C   LIG    1        5.396   2.723   9.495  0.00  0.00    +0.024 A 
ATOM     39  C   LIG    1        4.905   3.873  10.118  0.00  0.00    +0.003 A 
ATOM     40  C   LIG    1        4.074   4.739   9.407  0.00  0.00    +0.020 A 
ATOM     41  C   LIG    1        3.756   4.421   8.086  0.00  0.00    +0.111 A 
ATOM     42  N   LIG    1        4.222   3.307   7.465  0.00  0.00    -0.259 NA
ENDBRANCH  36  37
ENDBRANCH  34  36
ENDBRANCH  29  32
ENDBRANCH  26  27
ENDBRANCH  25  26
ENDBRANCH  24  25
ENDBRANCH  23  24
ENDBRANCH   4  23
TORSDOF 13
