REMARK  Name = DB15416
REMARK                            x       y       z     vdW  Elec       q    Type
REMARK                         _______ _______ _______ _____ _____    ______ ____
ROOT
ATOM      1  C   LIG    1       -2.905  -0.177   0.178  0.00  0.00    -0.025 A 
ATOM      2  C   LIG    1       -2.143   0.993   0.238  0.00  0.00    +0.009 A 
ATOM      3  C   LIG    1       -0.751   0.931   0.199  0.00  0.00    +0.046 A 
ATOM      4  C   LIG    1       -0.092  -0.294   0.095  0.00  0.00    +0.122 A 
ATOM      5  C   LIG    1       -0.860  -1.469   0.028  0.00  0.00    +0.066 A 
ATOM      6  C   LIG    1       -2.255  -1.415   0.064  0.00  0.00    +0.048 A 
ATOM      7 CL   LIG    1       -3.144  -2.895  -0.046  0.00  0.00    -0.083 Cl
ENDROOT
BRANCH   1   9
ATOM      8  C   LIG    1       -5.170   0.854   1.156  0.00  0.00    +0.027 C 
ATOM      9  C   LIG    1       -4.423  -0.075   0.212  0.00  0.00    +0.028 C 
ATOM     10  C   LIG    1       -5.194  -0.640   1.385  0.00  0.00    +0.017 C 
BRANCH   8  14
ATOM     11  C   LIG    1       -8.769   2.974  -0.006  0.00  0.00    +0.059 A 
ATOM     12  C   LIG    1       -8.751   2.140   1.130  0.00  0.00    +0.015 A 
ATOM     13  C   LIG    1       -7.598   1.456   1.505  0.00  0.00    +0.005 A 
ATOM     14  C   LIG    1       -6.435   1.586   0.748  0.00  0.00    -0.044 A 
ATOM     15  C   LIG    1       -6.426   2.407  -0.378  0.00  0.00    +0.005 A 
ATOM     16  C   LIG    1       -7.579   3.091  -0.750  0.00  0.00    +0.015 A 
BRANCH  11  17
ATOM     17  C   LIG    1      -10.025   3.719  -0.412  0.00  0.00    +0.337 C 
ATOM     18  O   LIG    1      -11.061   3.585   0.284  0.00  0.00    -0.245 OA
BRANCH  17  19
ATOM     19  O   LIG    1       -9.993   4.449  -1.432  0.00  0.00    -0.477 OA
ATOM     20  H   LIG    1      -10.126   5.373  -1.351  0.00  0.00    +0.295 HD
ENDBRANCH  17  19
ENDBRANCH  11  17
ENDBRANCH   8  14
ENDBRANCH   1   9
BRANCH   4  21
ATOM     21  O   LIG    1        1.288  -0.257   0.060  0.00  0.00    -0.487 OA
BRANCH  21  22
ATOM     22  C   LIG    1        2.016  -1.478  -0.021  0.00  0.00    +0.270 C 
BRANCH  22  23
ATOM     23  C   LIG    1        3.493  -1.158  -0.056  0.00  0.00    +0.060 A 
ATOM     24  C   LIG    1        4.440  -1.493  -1.032  0.00  0.00    +0.123 A 
ATOM     25  N   LIG    1        5.647  -1.058  -0.746  0.00  0.00    -0.078 NA
ATOM     26  O   LIG    1        5.532  -0.400   0.475  0.00  0.00    -0.358 OA
ATOM     27  C   LIG    1        4.241  -0.467   0.882  0.00  0.00    +0.147 A 
BRANCH  24  28
ATOM     28  C   LIG    1        4.195  -2.255  -2.288  0.00  0.00    +0.041 A 
ATOM     29  C   LIG    1        4.262  -3.659  -2.291  0.00  0.00    +0.052 A 
ATOM     30 CL   LIG    1        4.646  -4.548  -0.855  0.00  0.00    -0.083 Cl
ATOM     31  C   LIG    1        4.012  -4.369  -3.466  0.00  0.00    +0.021 A 
ATOM     32  C   LIG    1        3.692  -3.694  -4.641  0.00  0.00    +0.003 A 
ATOM     33  C   LIG    1        3.618  -2.303  -4.645  0.00  0.00    +0.021 A 
ATOM     34  C   LIG    1        3.865  -1.581  -3.477  0.00  0.00    +0.052 A 
ATOM     35 CL   LIG    1        3.747   0.146  -3.533  0.00  0.00    -0.083 Cl
ENDBRANCH  24  28
BRANCH  27  36
ATOM     36  C   LIG    1        3.913   0.197   2.200  0.00  0.00    +0.058 C 
ATOM     37  C   LIG    1        3.277  -0.593   3.314  0.00  0.00    +0.012 C 
ATOM     38  C   LIG    1        4.715  -0.120   3.436  0.00  0.00    +0.012 C 
ENDBRANCH  27  36
ENDBRANCH  22  23
ENDBRANCH  21  22
ENDBRANCH   4  21
TORSDOF 9
