REMARK  Name = DB15147
REMARK                            x       y       z     vdW  Elec       q    Type
REMARK                         _______ _______ _______ _____ _____    ______ ____
ROOT
ATOM      1  C   LIG    1        0.005   1.892  -1.148  0.00  0.00    +0.107 C 
ATOM      2  N   LIG    1       -0.643   0.675  -0.678  0.00  0.00    -0.275 NA
ATOM      3  C   LIG    1       -2.020   0.440  -0.697  0.00  0.00    +0.068 C 
ATOM      4  C   LIG    1       -3.091   1.230  -1.118  0.00  0.00    +0.024 C 
ATOM      5  C   LIG    1       -4.369   0.683  -0.989  0.00  0.00    +0.022 C 
ATOM      6  C   LIG    1       -4.614  -0.600  -0.462  0.00  0.00    +0.049 C 
ATOM      7  C   LIG    1       -3.517  -1.383  -0.046  0.00  0.00    +0.042 C 
ATOM      8  C   LIG    1       -2.235  -0.843  -0.174  0.00  0.00    +0.067 C 
ATOM      9  N   LIG    1       -0.989  -1.361   0.139  0.00  0.00    -0.287 NA
ATOM     10  H   LIG    1       -0.778  -2.266   0.535  0.00  0.00    +0.124 HD
ATOM     11  C   LIG    1       -0.016  -0.448  -0.176  0.00  0.00    +0.106 C 
ENDROOT
BRANCH   6  12
ATOM     12  N   LIG    1       -5.945  -1.107  -0.356  0.00  0.00    -0.292 NA
BRANCH  12  13
ATOM     13  C   LIG    1       -7.109  -0.291  -0.733  0.00  0.00    +0.101 C 
BRANCH  13  14
ATOM     14  C   LIG    1       -7.522   0.741   0.330  0.00  0.00    +0.124 C 
ATOM     15 CL   LIG    1       -8.895   1.710  -0.261  0.00  0.00    -0.124 Cl
ENDBRANCH  13  14
ENDBRANCH  12  13
BRANCH  12  16
ATOM     16  C   LIG    1       -6.228  -2.374   0.333  0.00  0.00    +0.101 C 
BRANCH  16  17
ATOM     17  C   LIG    1       -6.162  -2.281   1.868  0.00  0.00    +0.124 C 
ATOM     18 CL   LIG    1       -6.451  -3.884   2.591  0.00  0.00    -0.124 Cl
ENDBRANCH  16  17
ENDBRANCH  12  16
ENDBRANCH   6  12
BRANCH  11  19
ATOM     19  C   LIG    1        1.471  -0.661   0.036  0.00  0.00    +0.041 C 
BRANCH  19  20
ATOM     20  C   LIG    1        1.971  -0.011   1.339  0.00  0.00    +0.003 C 
BRANCH  20  21
ATOM     21  C   LIG    1        3.484  -0.187   1.557  0.00  0.00    +0.000 C 
BRANCH  21  22
ATOM     22  C   LIG    1        3.975   0.439   2.875  0.00  0.00    +0.000 C 
BRANCH  22  23
ATOM     23  C   LIG    1        5.491   0.278   3.090  0.00  0.00    +0.009 C 
BRANCH  23  24
ATOM     24  C   LIG    1        5.970   0.892   4.425  0.00  0.00    +0.098 C 
BRANCH  24  25
ATOM     25  C   LIG    1        7.475   0.730   4.696  0.00  0.00    +0.235 C 
ATOM     26  N   LIG    1        7.858   0.921   5.970  0.00  0.00    -0.197 N 
ATOM     27  H   LIG    1        7.282   1.118   6.776  0.00  0.00    +0.182 HD
ATOM     28  O   LIG    1        8.253   0.450   3.780  0.00  0.00    -0.274 OA
BRANCH  26  29
ATOM     29  O   LIG    1        9.211   0.763   6.289  0.00  0.00    -0.295 OA
ATOM     30  H   LIG    1        9.228  -0.065   6.775  0.00  0.00    +0.241 HD
ENDBRANCH  26  29
ENDBRANCH  24  25
ENDBRANCH  23  24
ENDBRANCH  22  23
ENDBRANCH  21  22
ENDBRANCH  20  21
ENDBRANCH  19  20
ENDBRANCH  11  19
TORSDOF 13
