REMARK  Name = DB15183
REMARK                            x       y       z     vdW  Elec       q    Type
REMARK                         _______ _______ _______ _____ _____    ______ ____
ROOT
ATOM      1  C   LIG    1        1.515  -0.085   0.406  0.00  0.00    +0.148 A 
ATOM      2  O   LIG    1        2.308   1.011   0.519  0.00  0.00    -0.359 OA
ATOM      3  N   LIG    1        3.645   0.608   0.524  0.00  0.00    -0.083 NA
ATOM      4  C   LIG    1        3.639  -0.704   0.428  0.00  0.00    +0.088 A 
ATOM      5  C   LIG    1        2.336  -1.194   0.370  0.00  0.00    +0.072 A 
ENDROOT
BRANCH   1  11
ATOM      6  C   LIG    1       -0.671   1.159  -0.249  0.00  0.00    +0.120 C 
ATOM      7  N   LIG    1       -2.045   1.187  -0.187  0.00  0.00    -0.253 NA
ATOM      8  C   LIG    1       -2.745   0.250   0.502  0.00  0.00    +0.082 C 
ATOM      9  C   LIG    1       -2.091  -0.798   1.141  0.00  0.00    +0.017 C 
ATOM     10  C   LIG    1       -0.704  -0.872   1.077  0.00  0.00    +0.016 C 
ATOM     11  C   LIG    1        0.027   0.104   0.390  0.00  0.00    +0.085 C 
BRANCH   6  12
ATOM     12  N   LIG    1        0.047   2.173  -0.953  0.00  0.00    -0.309 NA
ATOM     13  H   LIG    1       -0.450   2.952  -1.359  0.00  0.00    +0.120 HD
ATOM     14  H   LIG    1        1.056   2.145  -0.987  0.00  0.00    +0.120 HD
ENDBRANCH   6  12
BRANCH   7  15
ATOM     15  C   LIG    1       -2.847   2.266  -0.836  0.00  0.00    +0.261 C 
BRANCH  15  16
ATOM     16  O   LIG    1       -2.768   3.458  -0.073  0.00  0.00    -0.271 OA
BRANCH  16  17
ATOM     17  P   LIG    1       -3.576   3.623   1.484  0.00  0.00    +0.474 P 
ATOM     18  O   LIG    1       -3.498   5.120   1.832  0.00  0.00    -0.227 OA
BRANCH  17  19
ATOM     19  O   LIG    1       -2.787   2.738   2.465  0.00  0.00    -0.303 OA
ATOM     20  H   LIG    1       -2.870   1.808   2.200  0.00  0.00    +0.222 HD
ENDBRANCH  17  19
BRANCH  17  21
ATOM     21  O   LIG    1       -5.018   3.132   1.260  0.00  0.00    -0.303 OA
ATOM     22  H   LIG    1       -5.008   2.186   1.045  0.00  0.00    +0.222 HD
ENDBRANCH  17  21
ENDBRANCH  16  17
ENDBRANCH  15  16
ENDBRANCH   7  15
ENDBRANCH   1  11
BRANCH   4  23
ATOM     23  C   LIG    1        4.942  -1.480   0.398  0.00  0.00    +0.094 C 
BRANCH  23  24
ATOM     24  C   LIG    1        5.200  -2.106  -0.966  0.00  0.00    -0.041 A 
ATOM     25  C   LIG    1        5.018  -3.478  -1.153  0.00  0.00    +0.004 A 
ATOM     26  C   LIG    1        5.234  -4.044  -2.406  0.00  0.00    +0.007 A 
ATOM     27  C   LIG    1        5.635  -3.240  -3.475  0.00  0.00    -0.010 A 
ATOM     28  C   LIG    1        5.824  -1.868  -3.288  0.00  0.00    +0.007 A 
ATOM     29  C   LIG    1        5.607  -1.303  -2.034  0.00  0.00    +0.004 A 
BRANCH  27  30
ATOM     30  C   LIG    1        5.851  -3.861  -4.845  0.00  0.00    +0.266 C 
BRANCH  30  31
ATOM     31  O   LIG    1        4.579  -4.163  -5.420  0.00  0.00    -0.472 OA
BRANCH  31  32
ATOM     32  C   LIG    1        4.513  -4.736  -6.677  0.00  0.00    +0.215 A 
ATOM     33  C   LIG    1        3.254  -5.022  -7.211  0.00  0.00    +0.067 A 
ATOM     34  C   LIG    1        3.173  -5.600  -8.479  0.00  0.00    +0.007 A 
ATOM     35  C   LIG    1        4.345  -5.879  -9.183  0.00  0.00    +0.020 A 
ATOM     36  C   LIG    1        5.569  -5.567  -8.589  0.00  0.00    +0.114 A 
ATOM     37  N   LIG    1        5.667  -5.005  -7.357  0.00  0.00    -0.221 NA
ENDBRANCH  31  32
ENDBRANCH  30  31
ENDBRANCH  27  30
ENDBRANCH  23  24
ENDBRANCH   4  23
TORSDOF 12
