REMARK  Name = DB15477
REMARK                            x       y       z     vdW  Elec       q    Type
REMARK                         _______ _______ _______ _____ _____    ______ ____
ROOT
ATOM      1  C   LIG    1       -1.974  -0.589   3.537  0.00  0.00    +0.046 A 
ATOM      2  C   LIG    1       -1.636  -1.619   2.660  0.00  0.00    +0.128 A 
ATOM      3  C   LIG    1       -0.983  -1.333   1.438  0.00  0.00    +0.068 A 
ATOM      4  C   LIG    1       -0.661   0.010   1.129  0.00  0.00    -0.023 A 
ATOM      5  C   LIG    1        0.079   0.363  -0.173  0.00  0.00    +0.082 C 
ATOM      6  C   LIG    1       -0.286  -0.619  -1.297  0.00  0.00    -0.023 A 
ATOM      7  C   LIG    1       -0.289  -0.187  -2.628  0.00  0.00    +0.011 A 
ATOM      8  C   LIG    1       -0.592  -1.053  -3.676  0.00  0.00    -0.018 A 
ATOM      9  C   LIG    1       -0.905  -2.379  -3.391  0.00  0.00    +0.052 A 
ATOM     10  C   LIG    1       -0.920  -2.838  -2.075  0.00  0.00    +0.128 A 
ATOM     11  C   LIG    1       -0.614  -1.964  -1.007  0.00  0.00    +0.068 A 
ATOM     12  C   LIG    1       -1.040   1.022   2.020  0.00  0.00    +0.005 A 
ATOM     13  C   LIG    1       -0.647  -2.403   0.433  0.00  0.00    +0.201 C 
ATOM     14  O   LIG    1       -0.600  -3.595   0.745  0.00  0.00    -0.286 OA
ATOM     15  C   LIG    1       -1.684   0.730   3.216  0.00  0.00    +0.004 A 
ENDROOT
BRANCH   5  16
ATOM     16  C   LIG    1        1.628   0.442  -0.003  0.00  0.00    +0.162 C 
ATOM     17  C   LIG    1        2.115   1.580   0.938  0.00  0.00    +0.175 C 
ATOM     18  C   LIG    1        3.650   1.503   1.149  0.00  0.00    +0.176 C 
ATOM     19  C   LIG    1        4.109   0.067   1.512  0.00  0.00    +0.176 C 
ATOM     20  C   LIG    1        3.502  -0.969   0.530  0.00  0.00    +0.175 C 
ATOM     21  O   LIG    1        2.086  -0.794   0.544  0.00  0.00    -0.365 OA
BRANCH  17  22
ATOM     22  O   LIG    1        1.729   2.853   0.449  0.00  0.00    -0.387 OA
ATOM     23  H   LIG    1        0.779   2.947   0.549  0.00  0.00    +0.210 HD
ENDBRANCH  17  22
BRANCH  18  24
ATOM     24  O   LIG    1        4.089   2.443   2.118  0.00  0.00    -0.386 OA
ATOM     25  H   LIG    1        3.665   2.242   2.955  0.00  0.00    +0.210 HD
ENDBRANCH  18  24
BRANCH  19  26
ATOM     26  O   LIG    1        5.524  -0.022   1.550  0.00  0.00    -0.386 OA
ATOM     27  H   LIG    1        5.847   0.577   2.227  0.00  0.00    +0.210 HD
ENDBRANCH  19  26
BRANCH  20  28
ATOM     28  C   LIG    1        3.790  -2.423   0.960  0.00  0.00    +0.190 C 
BRANCH  28  29
ATOM     29  O   LIG    1        3.282  -3.337   0.008  0.00  0.00    -0.392 OA
ATOM     30  H   LIG    1        3.443  -4.229   0.322  0.00  0.00    +0.210 HD
ENDBRANCH  28  29
ENDBRANCH  20  28
ENDBRANCH   5  16
BRANCH   2  31
ATOM     31  O   LIG    1       -1.988  -2.892   3.038  0.00  0.00    -0.506 OA
ATOM     32  H   LIG    1       -2.428  -2.921   3.890  0.00  0.00    +0.292 HD
ENDBRANCH   2  31
BRANCH  10  33
ATOM     33  O   LIG    1       -1.263  -4.155  -1.885  0.00  0.00    -0.506 OA
ATOM     34  H   LIG    1       -1.446  -4.617  -2.705  0.00  0.00    +0.292 HD
ENDBRANCH  10  33
BRANCH   8  35
ATOM     35  C   LIG    1       -0.590  -0.551  -5.113  0.00  0.00    +0.191 C 
BRANCH  35  36
ATOM     36  O   LIG    1        0.691  -0.144  -5.548  0.00  0.00    -0.390 OA
ATOM     37  H   LIG    1        0.626   0.144  -6.462  0.00  0.00    +0.210 HD
ENDBRANCH  35  36
ENDBRANCH   8  35
TORSDOF 10
