REMARK  Name = DB15671
REMARK                            x       y       z     vdW  Elec       q    Type
REMARK                         _______ _______ _______ _____ _____    ______ ____
ROOT
ATOM      1  C   LIG    1        0.950   2.168  -4.570  0.00  0.00    +0.145 A 
ATOM      2  C   LIG    1        0.895   2.288  -3.175  0.00  0.00    +0.126 A 
ATOM      3  N   LIG    1        1.671   2.972  -2.279  0.00  0.00    -0.233 NA
ATOM      4  C   LIG    1        1.129   2.688  -1.119  0.00  0.00    +0.201 A 
ATOM      5  N   LIG    1        0.024   1.861  -1.185  0.00  0.00    -0.312 N 
ATOM      6  C   LIG    1       -0.145   1.580  -2.526  0.00  0.00    +0.165 A 
ATOM      7  N   LIG    1       -1.063   0.821  -3.138  0.00  0.00    -0.195 NA
ATOM      8  C   LIG    1       -0.910   0.777  -4.490  0.00  0.00    +0.215 A 
ATOM      9  N   LIG    1        0.039   1.406  -5.234  0.00  0.00    -0.221 NA
ENDROOT
BRANCH   8  10
ATOM     10  N   LIG    1       -1.829   0.003  -5.191  0.00  0.00    -0.327 N 
ATOM     11  H   LIG    1       -1.753  -0.064  -6.195  0.00  0.00    +0.145 HD
ATOM     12  H   LIG    1       -2.550  -0.490  -4.684  0.00  0.00    +0.145 HD
ENDBRANCH   8  10
BRANCH   5  13
ATOM     13  C   LIG    1       -0.752   1.361  -0.056  0.00  0.00    +0.159 C 
BRANCH  13  14
ATOM     14  C   LIG    1       -0.381  -0.108   0.259  0.00  0.00    +0.088 C 
ATOM     15  C   LIG    1       -1.210  -1.194  -0.388  0.00  0.00    +0.040 C 
ATOM     16  C   LIG    1       -1.332  -0.931   1.098  0.00  0.00    +0.040 C 
BRANCH  14  17
ATOM     17  O   LIG    1        1.011  -0.383   0.372  0.00  0.00    -0.360 OA
BRANCH  17  18
ATOM     18  C   LIG    1        1.633   0.133   1.543  0.00  0.00    +0.287 C 
BRANCH  18  19
ATOM     19  P   LIG    1        3.479  -0.146   1.409  0.00  0.00    +0.353 P 
ATOM     20  O   LIG    1        4.168   0.563   2.554  0.00  0.00    -0.256 OA
BRANCH  19  21
ATOM     21  O   LIG    1        3.714   0.787  -0.010  0.00  0.00    -0.323 OA
ATOM     22  H   LIG    1        3.565   0.443  -0.911  0.00  0.00    +0.220 HD
ENDBRANCH  19  21
BRANCH  19  23
ATOM     23  O   LIG    1        3.744  -1.594   1.061  0.00  0.00    -0.323 OA
ATOM     24  H   LIG    1        3.201  -1.847   0.298  0.00  0.00    +0.220 HD
ENDBRANCH  19  23
ENDBRANCH  18  19
ENDBRANCH  17  18
ENDBRANCH  14  17
ENDBRANCH  13  14
ENDBRANCH   5  13
TORSDOF 8
