REMARK  Name = DB15419
REMARK                            x       y       z     vdW  Elec       q    Type
REMARK                         _______ _______ _______ _____ _____    ______ ____
ROOT
ATOM      1  N   LIG    1        0.561  -0.787   0.431  0.00  0.00    -0.299 N 
ATOM      2  C   LIG    1        1.327  -1.216  -0.743  0.00  0.00    +0.110 C 
ATOM      3  C   LIG    1        1.420  -2.744  -0.784  0.00  0.00    -0.004 C 
ATOM      4  C   LIG    1        2.453  -3.399   0.095  0.00  0.00    -0.062 C 
ATOM      5  C   LIG    1        1.059  -3.185   0.622  0.00  0.00    -0.004 C 
ATOM      6  C   LIG    1        0.785  -1.883   1.378  0.00  0.00    +0.110 C 
ENDROOT
BRANCH   1  10
ATOM      7  C   LIG    1       -2.961   1.402   0.223  0.00  0.00    +0.075 A 
ATOM      8  C   LIG    1       -2.050   1.346  -0.845  0.00  0.00    +0.129 A 
ATOM      9  N   LIG    1       -0.907   0.616  -0.800  0.00  0.00    -0.222 NA
ATOM     10  C   LIG    1       -0.670  -0.105   0.332  0.00  0.00    +0.218 A 
ATOM     11  N   LIG    1       -1.474  -0.084   1.432  0.00  0.00    -0.222 NA
ATOM     12  C   LIG    1       -2.610   0.656   1.357  0.00  0.00    +0.129 A 
BRANCH   7  15
ATOM     13  N   LIG    1       -4.520   2.825  -0.984  0.00  0.00    -0.193 N 
ATOM     14  H   LIG    1       -4.005   2.790  -1.852  0.00  0.00    +0.183 HD
ATOM     15  C   LIG    1       -4.238   2.213   0.183  0.00  0.00    +0.269 C 
ATOM     16  O   LIG    1       -4.961   2.285   1.180  0.00  0.00    -0.268 OA
BRANCH  13  17
ATOM     17  O   LIG    1       -5.717   3.542  -1.086  0.00  0.00    -0.295 OA
ATOM     18  H   LIG    1       -6.260   2.985  -1.650  0.00  0.00    +0.241 HD
ENDBRANCH  13  17
ENDBRANCH   7  15
ENDBRANCH   1  10
BRANCH   4  19
ATOM     19  N   LIG    1        2.908  -4.828  -0.221  0.00  0.00    +0.385 N 
ATOM     20  H   LIG    1        2.134  -5.338  -0.625  0.00  0.00    -0.085 HD
ATOM     21  H   LIG    1        3.160  -5.293   0.640  0.00  0.00    -0.085 HD
BRANCH  19  22
ATOM     22  C   LIG    1        4.103  -4.892  -1.191  0.00  0.00    -0.026 C 
BRANCH  22  23
ATOM     23  C   LIG    1        4.615  -6.281  -1.571  0.00  0.00    +0.025 A 
ATOM     24  C   LIG    1        5.711  -6.393  -2.426  0.00  0.00    +0.022 A 
ATOM     25  C   LIG    1        6.178  -7.659  -2.772  0.00  0.00    +0.012 A 
ATOM     26  C   LIG    1        5.531  -8.806  -2.251  0.00  0.00    +0.003 A 
ATOM     27  C   LIG    1        5.946 -10.126  -2.556  0.00  0.00    +0.048 A 
ATOM     28  C   LIG    1        5.269 -11.215  -2.013  0.00  0.00    +0.124 A 
ATOM     29  F   LIG    1        5.673 -12.471  -2.310  0.00  0.00    -0.205 F 
ATOM     30  C   LIG    1        4.180 -11.022  -1.167  0.00  0.00    +0.040 A 
ATOM     31  C   LIG    1        3.747  -9.737  -0.847  0.00  0.00    +0.031 A 
ATOM     32  C   LIG    1        4.414  -8.609  -1.382  0.00  0.00    +0.071 A 
ATOM     33  N   LIG    1        3.971  -7.363  -1.054  0.00  0.00    -0.254 NA
ENDBRANCH  22  23
ENDBRANCH  19  22
ENDBRANCH   4  19
TORSDOF 6
