REMARK  Name = DB15319
REMARK                            x       y       z     vdW  Elec       q    Type
REMARK                         _______ _______ _______ _____ _____    ______ ____
ROOT
ATOM      1  C   LIG    1       -0.088  -0.122   0.075  0.00  0.00    +0.197 C 
ENDROOT
BRANCH   1   2
ATOM      2  N   LIG    1       -0.501  -0.680  -1.214  0.00  0.00    -0.239 N 
ATOM      3  N   LIG    1       -0.289  -1.963  -1.540  0.00  0.00    -0.065 NA
ATOM      4  N   LIG    1       -0.835  -2.142  -2.798  0.00  0.00    -0.131 NA
ATOM      5  C   LIG    1       -1.369  -0.999  -3.201  0.00  0.00    +0.120 A 
ATOM      6  C   LIG    1       -1.183  -0.037  -2.216  0.00  0.00    +0.138 A 
BRANCH   5   7
ATOM      7  C   LIG    1       -2.069  -0.893  -4.537  0.00  0.00    +0.287 C 
BRANCH   7   8
ATOM      8  O   LIG    1       -3.265  -1.667  -4.491  0.00  0.00    -0.486 OA
BRANCH   8   9
ATOM      9  C   LIG    1       -4.038  -1.798  -5.628  0.00  0.00    +0.122 A 
ATOM     10  C   LIG    1       -3.773  -1.141  -6.843  0.00  0.00    +0.048 A 
ATOM     11  C   LIG    1       -4.586  -1.311  -7.965  0.00  0.00    +0.032 A 
ATOM     12  C   LIG    1       -5.695  -2.162  -7.865  0.00  0.00    +0.081 A 
ATOM     13  N   LIG    1       -6.568  -2.427  -8.872  0.00  0.00    -0.221 NA
ATOM     14  C   LIG    1       -7.505  -3.249  -8.486  0.00  0.00    +0.233 A 
ATOM     15  S   LIG    1       -7.409  -3.813  -6.832  0.00  0.00    -0.047 S 
ATOM     16  C   LIG    1       -5.968  -2.824  -6.640  0.00  0.00    +0.044 A 
ATOM     17  C   LIG    1       -5.145  -2.644  -5.521  0.00  0.00    +0.063 A 
BRANCH  14  18
ATOM     18  S   LIG    1       -8.805  -3.815  -9.611  0.00  0.00    +0.080 S 
ATOM     19  O   LIG    1       -9.227  -2.653 -10.401  0.00  0.00    -0.151 OA
ATOM     20  O   LIG    1       -9.755  -4.617  -8.832  0.00  0.00    -0.151 OA
BRANCH  18  21
ATOM     21  N   LIG    1       -7.878  -4.886 -10.644  0.00  0.00    -0.202 NA
ATOM     22  H   LIG    1       -7.180  -4.419 -11.229  0.00  0.00    +0.144 HD
ATOM     23  H   LIG    1       -7.534  -5.734 -10.185  0.00  0.00    +0.144 HD
ENDBRANCH  18  21
ENDBRANCH  14  18
ENDBRANCH   8   9
ENDBRANCH   7   8
ENDBRANCH   5   7
ENDBRANCH   1   2
BRANCH   1  24
ATOM     24  C   LIG    1        1.457  -0.011   0.124  0.00  0.00    +0.239 C 
ATOM     25  N   LIG    1        1.960   1.238   0.117  0.00  0.00    -0.300 N 
ATOM     26  H   LIG    1        1.323   2.020   0.071  0.00  0.00    +0.150 HD
ATOM     27  O   LIG    1        2.148  -1.031   0.156  0.00  0.00    -0.273 OA
BRANCH  25  28
ATOM     28  CA  LIG    1        3.386   1.593   0.218  0.00  0.00    +0.186 C 
BRANCH  28  29
ATOM     29  C   LIG    1        3.909   1.397   1.693  0.00  0.00    +0.326 C 
ATOM     30  OXT LIG    1        4.959   0.720   1.789  0.00  0.00    -0.249 OA
BRANCH  29  31
ATOM     31  O   LIG    1        3.252   1.975   2.592  0.00  0.00    -0.479 OA
ATOM     32  H   LIG    1        3.515   1.896   3.489  0.00  0.00    +0.295 HD
ENDBRANCH  29  31
ENDBRANCH  28  29
BRANCH  28  33
ATOM     33  C   LIG    1        3.617   3.035  -0.313  0.00  0.00    +0.069 C 
BRANCH  33  34
ATOM     34  C   LIG    1        5.092   3.404  -0.438  0.00  0.00    -0.045 A 
ATOM     35  C   LIG    1        5.849   2.898  -1.496  0.00  0.00    +0.007 A 
ATOM     36  C   LIG    1        7.194   3.236  -1.616  0.00  0.00    +0.046 A 
ATOM     37  C   LIG    1        7.795   4.090  -0.677  0.00  0.00    +0.121 A 
ATOM     38  C   LIG    1        7.030   4.590   0.377  0.00  0.00    +0.046 A 
ATOM     39  C   LIG    1        5.685   4.252   0.499  0.00  0.00    +0.007 A 
BRANCH  37  40
ATOM     40  O   LIG    1        9.119   4.483  -0.718  0.00  0.00    -0.489 OA
BRANCH  40  41
ATOM     41  C   LIG    1        9.956   4.011  -1.770  0.00  0.00    +0.262 C 
BRANCH  41  42
ATOM     42  C   LIG    1       11.362   4.596  -1.593  0.00  0.00    +0.254 C 
ATOM     43  F   LIG    1       11.986   4.153  -0.502  0.00  0.00    -0.246 F 
ENDBRANCH  41  42
ENDBRANCH  40  41
ENDBRANCH  37  40
ENDBRANCH  33  34
ENDBRANCH  28  33
ENDBRANCH  25  28
ENDBRANCH   1  24
BRANCH   1  45
ATOM     44  C   LIG    1       -2.145  -1.042   1.318  0.00  0.00    +0.010 C 
ATOM     45  C   LIG    1       -0.611  -0.903   1.330  0.00  0.00    +0.016 C 
ATOM     46  C   LIG    1       -0.165  -0.302   2.682  0.00  0.00    +0.010 C 
ENDBRANCH   1  45
TORSDOF 16
