REMARK  Name = DB15678
REMARK                            x       y       z     vdW  Elec       q    Type
REMARK                         _______ _______ _______ _____ _____    ______ ____
ROOT
ATOM      1  C   LIG    1       -0.026   0.065   0.030  0.00  0.00    +0.000 C 
ENDROOT
BRANCH   1   2
ATOM      2  C   LIG    1       -0.543   1.514   0.060  0.00  0.00    +0.001 C 
BRANCH   2   3
ATOM      3  C   LIG    1       -2.083   1.601   0.089  0.00  0.00    +0.011 C 
BRANCH   3   4
ATOM      4  C   LIG    1       -2.648   3.047   0.067  0.00  0.00    +0.120 C 
BRANCH   4   5
ATOM      5  C   LIG    1       -2.345   3.895   1.327  0.00  0.00    +0.305 C 
ATOM      6  O   LIG    1       -2.259   5.133   1.161  0.00  0.00    -0.251 OA
BRANCH   5   7
ATOM      7  O   LIG    1       -2.245   3.328   2.439  0.00  0.00    -0.481 OA
ATOM      8  H   LIG    1       -2.061   3.831   3.207  0.00  0.00    +0.295 HD
ENDBRANCH   5   7
ENDBRANCH   4   5
ENDBRANCH   3   4
ENDBRANCH   2   3
ENDBRANCH   1   2
BRANCH   1   9
ATOM      9  C   LIG    1        1.510  -0.024  -0.013  0.00  0.00    +0.000 C 
BRANCH   9  10
ATOM     10  C   LIG    1        2.027  -1.473  -0.027  0.00  0.00    +0.000 C 
BRANCH  10  11
ATOM     11  C   LIG    1        3.565  -1.563  -0.081  0.00  0.00    +0.004 C 
BRANCH  11  12
ATOM     12  C   LIG    1        4.105  -3.004  -0.041  0.00  0.00    +0.026 C 
BRANCH  12  13
ATOM     13  C   LIG    1        3.750  -3.840  -1.257  0.00  0.00    -0.034 C 
ATOM     14  C   LIG    1        3.013  -4.960  -1.225  0.00  0.00    +0.004 C 
ENDBRANCH  12  13
ENDBRANCH  11  12
ENDBRANCH  10  11
ENDBRANCH   9  10
ENDBRANCH   1   9
TORSDOF 10
