REMARK  Name = DB15334
REMARK                            x       y       z     vdW  Elec       q    Type
REMARK                         _______ _______ _______ _____ _____    ______ ____
ROOT
ATOM      1  C   LIG    1        1.502   0.004  -0.002  0.00  0.00    +0.064 A 
ATOM      2  C   LIG    1        2.212   0.002   1.291  0.00  0.00    +0.204 A 
ATOM      3  O   LIG    1        1.637   0.013   2.381  0.00  0.00    -0.286 OA
ATOM      4  C   LIG    1        3.719  -0.012   1.163  0.00  0.00    +0.106 A 
ATOM      5  C   LIG    1        4.595  -0.013   2.272  0.00  0.00    +0.135 A 
ATOM      6  C   LIG    1        5.979  -0.019   2.082  0.00  0.00    +0.091 A 
ATOM      7  C   LIG    1        6.519  -0.023   0.800  0.00  0.00    +0.124 A 
ATOM      8  C   LIG    1        5.677  -0.025  -0.306  0.00  0.00    +0.092 A 
ATOM      9  C   LIG    1        4.297  -0.020  -0.124  0.00  0.00    +0.145 A 
ATOM     10  O   LIG    1        3.542  -0.024  -1.279  0.00  0.00    -0.462 OA
ATOM     11  C   LIG    1        2.194  -0.009  -1.160  0.00  0.00    +0.208 A 
ENDROOT
BRANCH   1  15
ATOM     12  C   LIG    1       -2.773   0.068  -0.022  0.00  0.00    +0.120 A 
ATOM     13  C   LIG    1       -2.045   1.269  -0.026  0.00  0.00    +0.046 A 
ATOM     14  C   LIG    1       -0.653   1.244  -0.024  0.00  0.00    +0.012 A 
ATOM     15  C   LIG    1        0.029   0.026  -0.023  0.00  0.00    -0.011 A 
ATOM     16  C   LIG    1       -0.693  -1.170  -0.013  0.00  0.00    +0.012 A 
ATOM     17  C   LIG    1       -2.085  -1.145  -0.016  0.00  0.00    +0.046 A 
BRANCH  12  19
ATOM     18  C   LIG    1       -4.912   1.198  -0.009  0.00  0.00    +0.277 C 
ATOM     19  O   LIG    1       -4.153  -0.006  -0.022  0.00  0.00    -0.495 OA
ENDBRANCH  12  19
ENDBRANCH   1  15
BRANCH   7  20
ATOM     20  O   LIG    1        7.876  -0.026   0.626  0.00  0.00    -0.507 OA
ATOM     21  H   LIG    1        8.357  -0.026   1.457  0.00  0.00    +0.292 HD
ENDBRANCH   7  20
BRANCH   5  22
ATOM     22  O   LIG    1        4.148  -0.008   3.570  0.00  0.00    -0.506 OA
ATOM     23  H   LIG    1        4.862  -0.010   4.211  0.00  0.00    +0.292 HD
ENDBRANCH   5  22
TORSDOF 4
