REMARK  Name = DB15073
REMARK                            x       y       z     vdW  Elec       q    Type
REMARK                         _______ _______ _______ _____ _____    ______ ____
ROOT
ATOM      1  C   LIG    1       -0.033  -0.126   0.013  0.00  0.00    +0.181 C 
ENDROOT
BRANCH   1   2
ATOM      2  O   LIG    1       -0.591   1.171   0.174  0.00  0.00    -0.386 OA
ATOM      3  H   LIG    1       -0.306   1.521   1.021  0.00  0.00    +0.210 HD
ENDBRANCH   1   2
BRANCH   1   4
ATOM      4  C   LIG    1       -0.556  -0.747  -1.323  0.00  0.00    +0.208 C 
BRANCH   4   5
ATOM      5  C   LIG    1       -2.087  -0.829  -1.400  0.00  0.00    +0.257 C 
ATOM      6  O   LIG    1       -2.733   0.001  -2.036  0.00  0.00    -0.298 OA
ENDBRANCH   4   5
BRANCH   4   7
ATOM      7  O   LIG    1       -0.093  -2.075  -1.483  0.00  0.00    -0.382 OA
ATOM      8  H   LIG    1       -0.363  -2.391  -2.349  0.00  0.00    +0.210 HD
ENDBRANCH   4   7
ENDBRANCH   1   4
BRANCH   1   9
ATOM      9  C   LIG    1        1.521  -0.003   0.107  0.00  0.00    +0.171 C 
BRANCH   9  10
ATOM     10  O   LIG    1        2.134  -1.281   0.146  0.00  0.00    -0.387 OA
ATOM     11  H   LIG    1        1.757  -1.819  -0.555  0.00  0.00    +0.210 HD
ENDBRANCH   9  10
BRANCH   9  12
ATOM     12  C   LIG    1        2.065   0.830   1.297  0.00  0.00    +0.189 C 
BRANCH  12  13
ATOM     13  O   LIG    1        1.576   0.367   2.542  0.00  0.00    -0.392 OA
ATOM     14  H   LIG    1        1.986   0.879   3.243  0.00  0.00    +0.210 HD
ENDBRANCH  12  13
ENDBRANCH   9  12
ENDBRANCH   1   9
TORSDOF 8
