REMARK  Name = DB15046
REMARK                            x       y       z     vdW  Elec       q    Type
REMARK                         _______ _______ _______ _____ _____    ______ ____
ROOT
ATOM      1  C   LIG    1        7.898  -0.017   1.150  0.00  0.00    -0.010 A 
ATOM      2  C   LIG    1        8.279  -1.256   1.667  0.00  0.00    +0.007 A 
ATOM      3  C   LIG    1        9.599  -1.683   1.550  0.00  0.00    +0.002 A 
ATOM      4  C   LIG    1       10.541  -0.868   0.917  0.00  0.00    -0.064 A 
ATOM      5  C   LIG    1       10.155   0.363   0.381  0.00  0.00    +0.002 A 
ATOM      6  C   LIG    1        8.835   0.790   0.500  0.00  0.00    +0.007 A 
ENDROOT
BRANCH   1   7
ATOM      7  C   LIG    1        6.458   0.447   1.293  0.00  0.00    +0.264 C 
BRANCH   7   8
ATOM      8  O   LIG    1        5.655  -0.218   0.322  0.00  0.00    -0.487 OA
BRANCH   8  12
ATOM      9  C   LIG    1        1.496   0.243   0.190  0.00  0.00    -0.032 A 
ATOM     10  C   LIG    1        2.226   0.947   1.155  0.00  0.00    +0.008 A 
ATOM     11  C   LIG    1        3.610   0.819   1.222  0.00  0.00    +0.046 A 
ATOM     12  C   LIG    1        4.288  -0.019   0.323  0.00  0.00    +0.121 A 
ATOM     13  C   LIG    1        3.558  -0.713  -0.642  0.00  0.00    +0.046 A 
ATOM     14  C   LIG    1        2.173  -0.585  -0.711  0.00  0.00    +0.008 A 
BRANCH   9  15
ATOM     15  C   LIG    1       -0.032   0.367   0.111  0.00  0.00    +0.104 C 
BRANCH  15  18
ATOM     16  C   LIG    1       -1.785  -2.035   3.037  0.00  0.00    +0.106 C 
ATOM     17  C   LIG    1       -1.182  -1.180   2.005  0.00  0.00    -0.105 C 
ATOM     18  C   LIG    1       -0.669  -0.477   1.148  0.00  0.00    -0.094 C 
ENDBRANCH  15  18
BRANCH  15  19
ATOM     19  C   LIG    1       -0.516   1.856   0.106  0.00  0.00    +0.141 C 
BRANCH  19  20
ATOM     20  C   LIG    1       -1.992   2.094  -0.310  0.00  0.00    +0.306 C 
ATOM     21  O   LIG    1       -2.528   1.325  -1.141  0.00  0.00    -0.251 OA
BRANCH  20  22
ATOM     22  O   LIG    1       -2.561   3.091   0.189  0.00  0.00    -0.481 OA
ATOM     23  H   LIG    1       -3.453   3.279  -0.030  0.00  0.00    +0.295 HD
ENDBRANCH  20  22
ENDBRANCH  19  20
ENDBRANCH  15  19
ENDBRANCH   9  15
ENDBRANCH   8  12
ENDBRANCH   7   8
ENDBRANCH   1   7
BRANCH   4  24
ATOM     24  C   LIG    1       11.985  -1.335   0.796  0.00  0.00    -0.043 C 
BRANCH  24  25
ATOM     25  N   LIG    1       12.813  -1.170   2.092  0.00  0.00    +0.382 N 
ATOM     26  H   LIG    1       12.313  -1.615   2.849  0.00  0.00    -0.081 HD
ATOM     27  C   LIG    1       12.989   0.324   2.453  0.00  0.00    -0.077 C 
ATOM     28  C   LIG    1       13.769   0.440   3.775  0.00  0.00    -0.003 C 
ATOM     29  C   LIG    1       15.126  -0.312   3.789  0.00  0.00    +0.011 C 
ATOM     30  C   LIG    1       16.221   0.452   3.053  0.00  0.00    -0.030 A 
ATOM     31  C   LIG    1       16.349   0.825   1.709  0.00  0.00    +0.005 A 
ATOM     32  C   LIG    1       17.471   1.539   1.284  0.00  0.00    +0.000 A 
ATOM     33  C   LIG    1       18.469   1.886   2.196  0.00  0.00    +0.001 A 
ATOM     34  C   LIG    1       18.349   1.518   3.536  0.00  0.00    +0.008 A 
ATOM     35  C   LIG    1       17.226   0.803   3.953  0.00  0.00    -0.021 A 
ATOM     36  C   LIG    1       16.865   0.302   5.276  0.00  0.00    +0.005 C 
ATOM     37  C   LIG    1       15.684  -0.333   5.203  0.00  0.00    -0.015 C 
ATOM     38  C   LIG    1       14.962  -1.765   3.266  0.00  0.00    -0.003 C 
ATOM     39  C   LIG    1       14.177  -1.883   1.944  0.00  0.00    -0.077 C 
ENDBRANCH  24  25
ENDBRANCH   4  24
TORSDOF 10
