REMARK  Name = DB15169
REMARK                            x       y       z     vdW  Elec       q    Type
REMARK                         _______ _______ _______ _____ _____    ______ ____
ROOT
ATOM      1  C   LIG    1       -1.914  -1.339   0.274  0.00  0.00    +0.128 A 
ATOM      2  N   LIG    1       -2.523  -0.325  -0.394  0.00  0.00    -0.221 NA
ATOM      3  C   LIG    1       -1.737   0.441  -1.188  0.00  0.00    +0.225 A 
ATOM      4  N   LIG    1       -0.405   0.281  -1.376  0.00  0.00    -0.220 NA
ATOM      5  C   LIG    1        0.211  -0.747  -0.715  0.00  0.00    +0.133 A 
ATOM      6  C   LIG    1       -0.542  -1.583   0.134  0.00  0.00    +0.088 A 
ENDROOT
BRANCH   5   7
ATOM      7  N   LIG    1        1.628  -0.950  -0.840  0.00  0.00    -0.243 N 
ATOM      8  C   LIG    1        2.408  -0.605  -1.920  0.00  0.00    +0.312 C 
ATOM      9  N   LIG    1        1.759  -0.282  -3.064  0.00  0.00    -0.266 N 
ATOM     10  H   LIG    1        0.757  -0.165  -3.011  0.00  0.00    +0.156 HD
ATOM     11  O   LIG    1        3.643  -0.646  -1.886  0.00  0.00    -0.252 OA
ATOM     12  C   LIG    1        2.319  -1.536   0.328  0.00  0.00    +0.141 C 
BRANCH   9  13
ATOM     13  C   LIG    1        2.352   0.058  -4.295  0.00  0.00    +0.079 A 
ATOM     14  C   LIG    1        3.172  -0.839  -5.009  0.00  0.00    +0.105 A 
ATOM     15 CL   LIG    1        3.449  -2.460  -4.444  0.00  0.00    -0.078 Cl
ATOM     16  C   LIG    1        3.745  -0.453  -6.227  0.00  0.00    +0.144 A 
ATOM     17  C   LIG    1        3.471   0.826  -6.734  0.00  0.00    +0.094 A 
ATOM     18  C   LIG    1        2.626   1.717  -6.056  0.00  0.00    +0.144 A 
ATOM     19  C   LIG    1        2.064   1.322  -4.837  0.00  0.00    +0.105 A 
ATOM     20 CL   LIG    1        1.018   2.429  -3.998  0.00  0.00    -0.078 Cl
BRANCH  16  21
ATOM     21  O   LIG    1        4.552  -1.375  -6.872  0.00  0.00    -0.493 OA
ATOM     22  C   LIG    1        5.157  -1.038  -8.117  0.00  0.00    +0.277 C 
ENDBRANCH  16  21
BRANCH  18  23
ATOM     23  O   LIG    1        2.311   2.981  -6.524  0.00  0.00    -0.493 OA
ATOM     24  C   LIG    1        2.850   3.432  -7.762  0.00  0.00    +0.277 C 
ENDBRANCH  18  23
ENDBRANCH   9  13
ENDBRANCH   5   7
BRANCH   1  25
ATOM     25  N   LIG    1       -2.654  -2.201   1.102  0.00  0.00    -0.298 N 
ATOM     26  H   LIG    1       -2.119  -2.999   1.409  0.00  0.00    +0.154 HD
BRANCH  25  30
ATOM     27  C   LIG    1       -6.652  -2.231   2.548  0.00  0.00    +0.031 A 
ATOM     28  C   LIG    1       -5.849  -3.377   2.614  0.00  0.00    +0.048 A 
ATOM     29  C   LIG    1       -4.530  -3.389   2.126  0.00  0.00    +0.057 A 
ATOM     30  C   LIG    1       -3.986  -2.208   1.573  0.00  0.00    +0.054 A 
ATOM     31  C   LIG    1       -4.786  -1.057   1.529  0.00  0.00    +0.027 A 
ATOM     32  C   LIG    1       -6.095  -1.072   2.000  0.00  0.00    +0.025 A 
BRANCH  27  37
ATOM     33  N   LIG    1      -10.212  -4.025   2.226  0.00  0.00    +0.382 N 
ATOM     34  H   LIG    1      -10.944  -3.574   2.757  0.00  0.00    -0.082 HD
ATOM     35  C   LIG    1       -9.098  -4.477   3.196  0.00  0.00    -0.060 C 
ATOM     36  C   LIG    1       -8.515  -3.237   3.917  0.00  0.00    +0.086 C 
ATOM     37  N   LIG    1       -7.969  -2.213   3.004  0.00  0.00    -0.333 N 
ATOM     38  C   LIG    1       -9.047  -1.805   2.085  0.00  0.00    +0.086 C 
ATOM     39  C   LIG    1       -9.612  -2.981   1.260  0.00  0.00    -0.060 C 
BRANCH  33  41
ATOM     40  C   LIG    1      -11.598  -6.161   2.333  0.00  0.00    -0.017 C 
ATOM     41  C   LIG    1      -10.811  -5.204   1.423  0.00  0.00    -0.082 C 
ENDBRANCH  33  41
ENDBRANCH  27  37
BRANCH  29  42
ATOM     42  N   LIG    1       -3.719  -4.548   2.194  0.00  0.00    -0.280 N 
ATOM     43  H   LIG    1       -2.729  -4.375   2.104  0.00  0.00    +0.155 HD
ATOM     44  C   LIG    1       -4.087  -5.848   2.253  0.00  0.00    +0.241 C 
ATOM     45  O   LIG    1       -5.251  -6.254   2.221  0.00  0.00    -0.271 OA
BRANCH  44  46
ATOM     46  C   LIG    1       -2.948  -6.733   2.350  0.00  0.00    +0.060 C 
ATOM     47  C   LIG    1       -3.070  -8.072   2.423  0.00  0.00    +0.013 C 
ENDBRANCH  44  46
ENDBRANCH  29  42
ENDBRANCH  25  30
ENDBRANCH   1  25
TORSDOF 10
