REMARK  Name = DB15326
REMARK                            x       y       z     vdW  Elec       q    Type
REMARK                         _______ _______ _______ _____ _____    ______ ____
ROOT
ATOM      1  C   LIG    1       -0.634   1.201   0.047  0.00  0.00    +0.114 A 
ATOM      2  C   LIG    1        0.099  -0.012  -0.031  0.00  0.00    +0.132 A 
ATOM      3  C   LIG    1       -0.602  -1.228  -0.031  0.00  0.00    +0.030 A 
ATOM      4  C   LIG    1       -1.991  -1.262   0.037  0.00  0.00    +0.002 A 
ATOM      5  C   LIG    1       -2.708  -0.075   0.112  0.00  0.00    +0.002 A 
ATOM      6  C   LIG    1       -2.034   1.142   0.116  0.00  0.00    +0.029 A 
ENDROOT
BRANCH   1   8
ATOM      7  C   LIG    1        0.391   3.221  -1.793  0.00  0.00    +0.200 C 
ATOM      8  S   LIG    1        0.084   2.866   0.038  0.00  0.00    -0.004 S 
ATOM      9  O   LIG    1       -0.954   3.802   0.488  0.00  0.00    -0.170 OA
ATOM     10  O   LIG    1        1.367   2.835   0.746  0.00  0.00    -0.170 OA
ENDBRANCH   1   8
BRANCH   2  11
ATOM     11  S   LIG    1        1.909  -0.138  -0.074  0.00  0.00    +0.082 S 
ATOM     12  O   LIG    1        2.417   0.885  -0.993  0.00  0.00    -0.151 OA
ATOM     13  O   LIG    1        2.260  -1.546  -0.303  0.00  0.00    -0.151 OA
BRANCH  11  14
ATOM     14  N   LIG    1        2.456   0.278   1.551  0.00  0.00    -0.071 NA
ATOM     15  H   LIG    1        2.204   1.224   1.850  0.00  0.00    +0.181 HD
BRANCH  14  16
ATOM     16  O   LIG    1        1.821  -0.596   2.468  0.00  0.00    -0.295 OA
ATOM     17  H   LIG    1        2.525  -0.771   3.097  0.00  0.00    +0.238 HD
ENDBRANCH  14  16
ENDBRANCH  11  14
ENDBRANCH   2  11
TORSDOF 4
