REMARK  Name = DB15152
REMARK                            x       y       z     vdW  Elec       q    Type
REMARK                         _______ _______ _______ _____ _____    ______ ____
ROOT
ATOM      1  C   LIG    1        1.886  -0.136   0.087  0.00  0.00    +0.267 C 
ATOM      2  C   LIG    1        2.634   0.322  -1.177  0.00  0.00    +0.244 C 
ATOM      3  C   LIG    1        4.037  -0.287  -1.089  0.00  0.00    +0.082 C 
ATOM      4  C   LIG    1        4.636  -0.645  -2.465  0.00  0.00    +0.016 C 
ATOM      5  C   LIG    1        3.789  -1.481  -0.138  0.00  0.00    +0.233 C 
ATOM      6  O   LIG    1        2.417  -1.456   0.163  0.00  0.00    -0.320 OA
ENDROOT
BRANCH   5   7
ATOM      7  N   LIG    1        4.232  -2.819  -0.532  0.00  0.00    -0.272 N 
ATOM      8  C   LIG    1        5.554  -3.196  -0.324  0.00  0.00    +0.352 A 
ATOM      9  O   LIG    1        6.341  -2.388   0.173  0.00  0.00    -0.244 OA
ATOM     10  N   LIG    1        5.896  -4.510  -0.717  0.00  0.00    -0.178 NA
ATOM     11  C   LIG    1        5.071  -5.295  -1.321  0.00  0.00    +0.123 A 
ATOM     12  C   LIG    1        3.727  -4.884  -1.606  0.00  0.00    +0.061 A 
ATOM     13  C   LIG    1        3.367  -3.660  -1.194  0.00  0.00    +0.096 A 
BRANCH  11  14
ATOM     14  N   LIG    1        5.438  -6.528  -1.698  0.00  0.00    -0.343 N 
ATOM     15  H   LIG    1        6.373  -6.858  -1.513  0.00  0.00    +0.144 HD
ATOM     16  H   LIG    1        4.785  -7.138  -2.168  0.00  0.00    +0.144 HD
ENDBRANCH  11  14
ENDBRANCH   5   7
BRANCH   1  17
ATOM     17  N   LIG    1        2.313   0.597   1.281  0.00  0.00    -0.069 NA
ATOM     18  N   LIG    1        1.863   0.210   2.360  0.00  0.00    -0.194 NA
ATOM     19  N   LIG    1        1.570  -0.205   3.379  0.00  0.00    -0.127 NA
ATOM     20  H   LIG    1        1.280  -1.142   3.464  0.00  0.00    +0.228 HD
ENDBRANCH   1  17
BRANCH   1  21
ATOM     21  C   LIG    1        0.347  -0.236  -0.060  0.00  0.00    +0.298 C 
BRANCH  21  22
ATOM     22  O   LIG    1       -0.221   1.051  -0.262  0.00  0.00    -0.459 OA
BRANCH  22  23
ATOM     23  C   LIG    1       -1.557   1.221  -0.320  0.00  0.00    +0.310 C 
ATOM     24  O   LIG    1       -2.399   0.331  -0.175  0.00  0.00    -0.251 OA
BRANCH  23  26
ATOM     25  C   LIG    1       -1.445   3.631   0.506  0.00  0.00    +0.019 C 
ATOM     26  C   LIG    1       -1.939   2.686  -0.610  0.00  0.00    +0.092 C 
ATOM     27  C   LIG    1       -3.448   2.878  -0.875  0.00  0.00    +0.019 C 
ENDBRANCH  23  26
ENDBRANCH  22  23
ENDBRANCH  21  22
ENDBRANCH   1  21
BRANCH   2  28
ATOM     28  O   LIG    1        2.742   1.744  -1.302  0.00  0.00    -0.456 OA
BRANCH  28  29
ATOM     29  C   LIG    1        1.963   2.458  -2.147  0.00  0.00    +0.310 C 
ATOM     30  O   LIG    1        1.095   1.997  -2.891  0.00  0.00    -0.251 OA
BRANCH  29  31
ATOM     31  C   LIG    1        2.264   3.966  -2.068  0.00  0.00    +0.092 C 
ATOM     32  C   LIG    1        3.554   4.304  -2.842  0.00  0.00    +0.019 C 
ATOM     33  C   LIG    1        1.084   4.841  -2.542  0.00  0.00    +0.019 C 
ENDBRANCH  29  31
ENDBRANCH  28  29
ENDBRANCH   2  28
TORSDOF 10
