REMARK  Name = DB15338
REMARK                            x       y       z     vdW  Elec       q    Type
REMARK                         _______ _______ _______ _____ _____    ______ ____
ROOT
ATOM      1  C   LIG    1        0.143  -0.040  -0.004  0.00  0.00    +0.165 C 
ENDROOT
BRANCH   1   5
ATOM      2  C   LIG    1       -3.001   3.265   0.338  0.00  0.00    +0.028 C 
ATOM      3  C   LIG    1       -2.381   2.771  -0.990  0.00  0.00    +0.073 C 
ATOM      4  N   LIG    1       -1.678   1.484  -0.821  0.00  0.00    -0.297 N 
ATOM      5  C   LIG    1       -0.497   1.366  -0.161  0.00  0.00    +0.236 C 
ATOM      6  O   LIG    1        0.083   2.333   0.345  0.00  0.00    -0.274 OA
ATOM      7  C   LIG    1       -2.417   0.359  -1.416  0.00  0.00    +0.108 C 
ATOM      8  C   LIG    1       -3.762   0.974  -1.801  0.00  0.00    +0.021 C 
ATOM      9  C   LIG    1       -3.443   2.437  -2.043  0.00  0.00    +0.024 C 
ENDBRANCH   1   5
BRANCH   1  10
ATOM     10  N   LIG    1        1.607   0.068  -0.023  0.00  0.00    -0.302 N 
ATOM     11  H   LIG    1        1.984   0.859   0.479  0.00  0.00    +0.150 HD
ATOM     12  C   LIG    1        2.450  -0.753  -0.672  0.00  0.00    +0.238 C 
ATOM     13  O   LIG    1        2.070  -1.743  -1.302  0.00  0.00    -0.274 OA
BRANCH  12  14
ATOM     14  C   LIG    1        3.953  -0.389  -0.569  0.00  0.00    +0.202 C 
ATOM     15  C   LIG    1        4.438   0.724  -1.516  0.00  0.00    +0.204 C 
ATOM     16  C   LIG    1        3.413   1.633  -2.230  0.00  0.00    +0.054 C 
ATOM     17  O   LIG    1        5.181   0.028  -2.499  0.00  0.00    -0.445 OA
ATOM     18  C   LIG    1        5.438  -1.256  -2.172  0.00  0.00    +0.401 C 
ATOM     19  O   LIG    1        6.077  -2.019  -2.892  0.00  0.00    -0.226 OA
ATOM     20  N   LIG    1        4.816  -1.488  -0.955  0.00  0.00    -0.266 N 
ATOM     21  H   LIG    1        5.091  -2.218  -0.316  0.00  0.00    +0.153 HD
ENDBRANCH  12  14
ENDBRANCH   1  10
BRANCH   1  22
ATOM     22  C   LIG    1       -0.372  -0.739   1.282  0.00  0.00    +0.087 C 
BRANCH  22  23
ATOM     23  C   LIG    1       -0.009  -2.213   1.343  0.00  0.00    +0.051 A 
ATOM     24  N   LIG    1        1.084  -2.539   2.012  0.00  0.00    -0.252 NA
ATOM     25  C   LIG    1        1.312  -3.827   1.976  0.00  0.00    +0.156 A 
ATOM     26  S   LIG    1        0.157  -4.763   1.091  0.00  0.00    -0.084 S 
ATOM     27  C   LIG    1       -0.687  -3.282   0.758  0.00  0.00    +0.070 A 
ENDBRANCH  22  23
ENDBRANCH   1  22
TORSDOF 5
