REMARK  Name = DB15208
REMARK                            x       y       z     vdW  Elec       q    Type
REMARK                         _______ _______ _______ _____ _____    ______ ____
ROOT
ATOM      1  N   LIG    1        1.637  -1.150  -2.074  0.00  0.00    +0.380 N 
ATOM      2  H   LIG    1        0.627  -1.168  -2.044  0.00  0.00    -0.082 HD
ATOM      3  C   LIG    1        2.083  -2.457  -2.774  0.00  0.00    -0.076 C 
ATOM      4  C   LIG    1        3.601  -2.435  -3.058  0.00  0.00    +0.022 C 
ATOM      5  C   LIG    1        4.061  -1.196  -3.868  0.00  0.00    +0.097 C 
ATOM      6  C   LIG    1        5.580  -1.195  -4.080  0.00  0.00    +0.027 A 
ATOM      7  S   LIG    1        6.770  -1.236  -2.807  0.00  0.00    -0.061 S 
ATOM      8  C   LIG    1        8.055  -1.153  -3.965  0.00  0.00    +0.161 A 
ATOM      9  C   LIG    1        7.575  -1.097  -5.265  0.00  0.00    +0.050 A 
ATOM     10  F   LIG    1        9.306  -1.140  -3.568  0.00  0.00    -0.198 F 
ATOM     11  C   LIG    1        6.177  -1.146  -5.341  0.00  0.00    -0.029 A 
ATOM     12  C   LIG    1        5.342  -1.069  -6.607  0.00  0.00    +0.064 C 
ATOM     13  C   LIG    1        3.938  -0.551  -6.234  0.00  0.00    +0.165 C 
ATOM     14  O   LIG    1        3.405  -1.312  -5.147  0.00  0.00    -0.368 OA
ATOM     15  C   LIG    1        3.573   0.093  -3.155  0.00  0.00    +0.022 C 
ATOM     16  C   LIG    1        2.053   0.098  -2.891  0.00  0.00    -0.076 C 
ENDROOT
BRANCH   1  17
ATOM     17  C   LIG    1        2.106  -1.121  -0.591  0.00  0.00    -0.066 C 
BRANCH  17  18
ATOM     18  C   LIG    1        1.508   0.054   0.242  0.00  0.00    +0.063 C 
BRANCH  18  22
ATOM     19  C   LIG    1       -2.008   1.551  -0.300  0.00  0.00    +0.128 C 
ATOM     20  N   LIG    1       -0.578   1.287  -0.180  0.00  0.00    -0.318 N 
ATOM     21  H   LIG    1        0.036   2.064  -0.379  0.00  0.00    +0.148 HD
ATOM     22  C   LIG    1       -0.034   0.111   0.176  0.00  0.00    +0.214 C 
ATOM     23  O   LIG    1       -0.696  -0.894   0.441  0.00  0.00    -0.276 OA
ENDBRANCH  18  22
BRANCH  18  24
ATOM     24  C   LIG    1        1.975   0.017   1.722  0.00  0.00    +0.049 C 
BRANCH  24  25
ATOM     25  C   LIG    1        3.492   0.068   1.891  0.00  0.00    -0.012 A 
ATOM     26  C   LIG    1        4.242  -1.109   2.021  0.00  0.00    +0.127 A 
ATOM     27  F   LIG    1        3.634  -2.318   2.004  0.00  0.00    -0.205 F 
ATOM     28  C   LIG    1        5.630  -1.044   2.159  0.00  0.00    +0.038 A 
ATOM     29  C   LIG    1        6.275   0.193   2.170  0.00  0.00    +0.003 A 
ATOM     30  C   LIG    1        5.533   1.367   2.044  0.00  0.00    +0.000 A 
ATOM     31  C   LIG    1        4.146   1.305   1.906  0.00  0.00    +0.006 A 
ENDBRANCH  24  25
ENDBRANCH  18  24
ENDBRANCH  17  18
ENDBRANCH   1  17
TORSDOF 5
