REMARK  Name = DB15344
REMARK                            x       y       z     vdW  Elec       q    Type
REMARK                         _______ _______ _______ _____ _____    ______ ____
ROOT
ATOM      1  C   LIG    1       -0.618  -0.730   1.258  0.00  0.00    +0.041 C 
ATOM      2  C   LIG    1       -0.020  -0.015   0.025  0.00  0.00    +0.071 C 
ATOM      3  C   LIG    1       -0.512  -0.701  -1.267  0.00  0.00    +0.041 C 
ENDROOT
BRANCH   2   4
ATOM      4  O   LIG    1       -0.558   1.297  -0.002  0.00  0.00    -0.389 OA
ATOM      5  H   LIG    1       -0.148   1.779  -0.725  0.00  0.00    +0.210 HD
ENDBRANCH   2   4
BRANCH   2   6
ATOM      6  C   LIG    1        1.543   0.029   0.038  0.00  0.00    +0.154 C 
BRANCH   6   7
ATOM      7  C   LIG    1        2.166   0.783   1.237  0.00  0.00    +0.307 C 
ATOM      8  O   LIG    1        2.529   0.104   2.224  0.00  0.00    -0.251 OA
BRANCH   7   9
ATOM      9  O   LIG    1        2.294   2.025   1.142  0.00  0.00    -0.481 OA
ATOM     10  H   LIG    1        2.667   2.513   1.849  0.00  0.00    +0.295 HD
ENDBRANCH   7   9
ENDBRANCH   6   7
ENDBRANCH   2   6
TORSDOF 4
