REMARK  Name = DB15186
REMARK                            x       y       z     vdW  Elec       q    Type
REMARK                         _______ _______ _______ _____ _____    ______ ____
ROOT
ATOM      1  C   LIG    1       -5.953   2.144   1.839  0.00  0.00    +0.049 C 
ATOM      2  C   LIG    1       -5.373   2.340   0.421  0.00  0.00    +0.121 C 
ATOM      3  C   LIG    1       -4.083   1.529   0.251  0.00  0.00    +0.144 A 
ATOM      4  N   LIG    1       -3.989   0.220   0.193  0.00  0.00    -0.224 NA
ATOM      5  C   LIG    1       -2.648  -0.049   0.077  0.00  0.00    +0.148 A 
ATOM      6  C   LIG    1       -1.915   1.164   0.079  0.00  0.00    +0.166 A 
ATOM      7  N   LIG    1       -0.589   1.276  -0.032  0.00  0.00    -0.208 NA
ATOM      8  C   LIG    1        0.055   0.080  -0.150  0.00  0.00    +0.167 A 
ATOM      9  N   LIG    1       -0.536  -1.148  -0.155  0.00  0.00    -0.210 NA
ATOM     10  C   LIG    1       -1.893  -1.247  -0.033  0.00  0.00    +0.153 A 
ATOM     11  N   LIG    1       -2.855   2.163   0.214  0.00  0.00    -0.308 N 
ATOM     12  C   LIG    1       -2.661   3.610   0.203  0.00  0.00    +0.153 C 
ATOM     13  C   LIG    1       -3.914   4.259   0.825  0.00  0.00    +0.182 C 
ATOM     14  O   LIG    1       -5.099   3.736   0.217  0.00  0.00    -0.365 OA
ATOM     15  C   LIG    1       -6.371   1.981  -0.696  0.00  0.00    +0.049 C 
ENDROOT
BRANCH   8  16
ATOM     16  C   LIG    1        1.548   0.120  -0.293  0.00  0.00    +0.056 A 
ATOM     17  C   LIG    1        2.333  -1.044  -0.394  0.00  0.00    +0.127 A 
ATOM     18  N   LIG    1        3.685  -1.028  -0.528  0.00  0.00    -0.222 NA
ATOM     19  C   LIG    1        4.271   0.193  -0.563  0.00  0.00    +0.213 A 
ATOM     20  N   LIG    1        3.626   1.380  -0.474  0.00  0.00    -0.222 NA
ATOM     21  C   LIG    1        2.275   1.323  -0.341  0.00  0.00    +0.127 A 
BRANCH  19  22
ATOM     22  N   LIG    1        5.655   0.229  -0.703  0.00  0.00    -0.327 N 
ATOM     23  H   LIG    1        6.127   1.121  -0.734  0.00  0.00    +0.145 HD
ATOM     24  H   LIG    1        6.168  -0.638  -0.773  0.00  0.00    +0.145 HD
ENDBRANCH  19  22
ENDBRANCH   8  16
BRANCH  10  25
ATOM     25  N   LIG    1       -2.452  -2.534  -0.084  0.00  0.00    -0.309 N 
ATOM     26  C   LIG    1       -1.600  -3.735   0.080  0.00  0.00    +0.134 C 
ATOM     27  C   LIG    1       -2.246  -5.079  -0.310  0.00  0.00    +0.178 C 
ATOM     28  O   LIG    1       -3.510  -5.207   0.314  0.00  0.00    -0.377 OA
ATOM     29  C   LIG    1       -4.396  -4.204  -0.146  0.00  0.00    +0.178 C 
ATOM     30  C   LIG    1       -3.872  -2.801   0.223  0.00  0.00    +0.134 C 
ENDBRANCH  10  25
TORSDOF 3
