REMARK  Name = DB15279
REMARK                            x       y       z     vdW  Elec       q    Type
REMARK                         _______ _______ _______ _____ _____    ______ ____
ROOT
ATOM      1  C   LIG    1       -2.805  -0.003  -0.019  0.00  0.00    -0.042 A 
ATOM      2  C   LIG    1       -1.944  -1.083  -0.270  0.00  0.00    +0.008 A 
ATOM      3  C   LIG    1       -0.564  -0.935  -0.172  0.00  0.00    +0.046 A 
ATOM      4  C   LIG    1       -0.023   0.297   0.187  0.00  0.00    +0.130 A 
ATOM      5  C   LIG    1       -0.860   1.384   0.430  0.00  0.00    +0.046 A 
ATOM      6  C   LIG    1       -2.240   1.235   0.332  0.00  0.00    +0.008 A 
ENDROOT
BRANCH   1   8
ATOM      7  C   LIG    1       -4.691  -0.638  -1.587  0.00  0.00    +0.015 C 
ATOM      8  C   LIG    1       -4.337  -0.208  -0.141  0.00  0.00    -0.013 C 
ATOM      9  C   LIG    1       -4.798  -1.309   0.847  0.00  0.00    +0.015 C 
ATOM     10  C   LIG    1       -5.157   1.072   0.176  0.00  0.00    +0.015 C 
ENDBRANCH   1   8
BRANCH   4  11
ATOM     11  O   LIG    1        1.340   0.447   0.269  0.00  0.00    -0.438 OA
BRANCH  11  12
ATOM     12  C   LIG    1        1.995   0.289   1.474  0.00  0.00    +0.221 A 
ATOM     13  N   LIG    1        3.335   0.503   1.392  0.00  0.00    -0.219 NA
ATOM     14  C   LIG    1        4.079   0.373   2.520  0.00  0.00    +0.137 A 
ATOM     15  C   LIG    1        3.529   0.029   3.756  0.00  0.00    +0.043 A 
ATOM     16  C   LIG    1        2.152  -0.192   3.832  0.00  0.00    +0.029 A 
ATOM     17  C   LIG    1        1.370  -0.063   2.683  0.00  0.00    +0.069 A 
BRANCH  15  18
ATOM     18  N   LIG    1        4.334  -0.092   4.888  0.00  0.00    -0.357 N 
ATOM     19  H   LIG    1        3.915  -0.342   5.772  0.00  0.00    +0.142 HD
ATOM     20  H   LIG    1        5.326   0.083   4.814  0.00  0.00    +0.142 HD
ENDBRANCH  15  18
ENDBRANCH  11  12
ENDBRANCH   4  11
TORSDOF 4
