REMARK  Name = DB15642
REMARK                            x       y       z     vdW  Elec       q    Type
REMARK                         _______ _______ _______ _____ _____    ______ ____
ROOT
ATOM      1  C   LIG    1       -0.748  -1.238  -0.196  0.00  0.00    +0.243 A 
ATOM      2  C   LIG    1       -2.012  -0.812   0.197  0.00  0.00    +0.148 A 
ATOM      3  C   LIG    1       -1.847   0.499   0.651  0.00  0.00    +0.166 A 
ATOM      4  N   LIG    1       -0.599   0.892   0.560  0.00  0.00    -0.168 NA
ATOM      5  N   LIG    1        0.087  -0.152   0.043  0.00  0.00    -0.180 N 
ENDROOT
BRANCH   5   6
ATOM      6  C   LIG    1        1.478   0.007  -0.187  0.00  0.00    +0.163 A 
ATOM      7  C   LIG    1        2.299   0.603   0.783  0.00  0.00    +0.092 A 
ATOM      8  C   LIG    1        3.675   0.720   0.507  0.00  0.00    +0.127 A 
ATOM      9  N   LIG    1        4.166   0.310  -0.701  0.00  0.00    -0.221 NA
ATOM     10  C   LIG    1        3.297  -0.254  -1.576  0.00  0.00    +0.225 A 
ATOM     11  N   LIG    1        1.970  -0.430  -1.378  0.00  0.00    -0.216 NA
BRANCH   8  12
ATOM     12  N   LIG    1        4.562   1.365   1.378  0.00  0.00    -0.311 N 
ATOM     13  C   LIG    1        6.017   1.402   1.113  0.00  0.00    +0.134 C 
ATOM     14  C   LIG    1        6.811   2.430   1.944  0.00  0.00    +0.178 C 
ATOM     15  O   LIG    1        6.509   2.280   3.320  0.00  0.00    -0.377 OA
ATOM     16  C   LIG    1        5.139   2.541   3.568  0.00  0.00    +0.178 C 
ATOM     17  C   LIG    1        4.250   1.530   2.814  0.00  0.00    +0.134 C 
ENDBRANCH   8  12
ENDBRANCH   5   6
BRANCH   2  18
ATOM     18  N   LIG    1       -3.195  -1.515   0.191  0.00  0.00    -0.213 N 
ATOM     19  N   LIG    1       -4.306  -0.978  -0.330  0.00  0.00    -0.061 NA
ATOM     20  N   LIG    1       -5.322  -1.897  -0.130  0.00  0.00    -0.138 NA
ATOM     21  C   LIG    1       -4.814  -2.933   0.513  0.00  0.00    +0.156 A 
ATOM     22  C   LIG    1       -3.463  -2.736   0.755  0.00  0.00    +0.136 A 
ENDBRANCH   2  18
BRANCH   1  23
ATOM     23  O   LIG    1       -0.370  -2.370  -0.654  0.00  0.00    -0.491 OA
ATOM     24  H   LIG    1        0.529  -2.508  -0.878  0.00  0.00    +0.294 HD
ENDBRANCH   1  23
TORSDOF 4
