REMARK  Name = DB15241
REMARK                            x       y       z     vdW  Elec       q    Type
REMARK                         _______ _______ _______ _____ _____    ______ ____
ROOT
ATOM      1  C   LIG    1       -0.504   1.641   0.025  0.00  0.00    -0.091 C 
ATOM      2  N   LIG    1       -0.037   0.154   0.025  0.00  0.00    +0.382 N 
ATOM      3  C   LIG    1       -0.576  -0.593   1.321  0.00  0.00    -0.028 C 
ATOM      4  C   LIG    1        0.153  -1.933   1.583  0.00  0.00    +0.023 C 
ATOM      5  C   LIG    1       -0.251  -3.053   0.623  0.00  0.00    -0.041 A 
ATOM      6  C   LIG    1        0.615  -4.139   0.548  0.00  0.00    +0.005 A 
ATOM      7  C   LIG    1        0.344  -5.230  -0.248  0.00  0.00    +0.017 A 
ATOM      8  C   LIG    1       -0.796  -5.269  -1.043  0.00  0.00    +0.078 A 
ATOM      9  C   LIG    1       -1.701  -4.163  -0.994  0.00  0.00    +0.133 A 
ATOM     10  C   LIG    1       -1.467  -3.042  -0.127  0.00  0.00    +0.007 A 
ATOM     11  C   LIG    1       -2.394  -1.745  -0.052  0.00  0.00    +0.032 C 
ATOM     12  C   LIG    1       -3.956  -1.976  -0.086  0.00  0.00    +0.088 C 
ATOM     13  C   LIG    1       -4.500  -2.715   1.144  0.00  0.00    +0.134 C 
ATOM     14  C   LIG    1       -4.153  -2.028   2.468  0.00  0.00    +0.077 C 
ATOM     15  C   LIG    1       -2.644  -1.705   2.512  0.00  0.00    +0.041 C 
ATOM     16  O   LIG    1       -5.131  -3.768   1.076  0.00  0.00    -0.297 OA
ATOM     17  C   LIG    1       -2.024  -0.844  -1.265  0.00  0.00    -0.003 C 
ATOM     18  C   LIG    1       -2.105  -0.915   1.266  0.00  0.00    +0.065 C 
ATOM     19  C   LIG    1       -0.526  -0.471  -1.319  0.00  0.00    -0.074 C 
ENDROOT
BRANCH   8  20
ATOM     20  C   LIG    1       -0.954  -6.522  -1.897  0.00  0.00    +0.245 C 
ATOM     21  O   LIG    1       -0.776  -7.643  -1.422  0.00  0.00    -0.270 OA
ATOM     22  N   LIG    1       -1.225  -6.347  -3.195  0.00  0.00    -0.325 N 
ATOM     23  H   LIG    1       -1.303  -7.144  -3.808  0.00  0.00    +0.145 HD
ATOM     24  H   LIG    1       -1.418  -5.421  -3.549  0.00  0.00    +0.145 HD
ENDBRANCH   8  20
BRANCH   9  25
ATOM     25  O   LIG    1       -2.730  -4.160  -1.757  0.00  0.00    -0.506 OA
ATOM     26  H   LIG    1       -3.329  -3.440  -1.733  0.00  0.00    +0.292 HD
ENDBRANCH   9  25
BRANCH  18  27
ATOM     27  O   LIG    1       -2.838   0.305   1.311  0.00  0.00    -0.389 OA
ATOM     28  H   LIG    1       -2.673   0.728   2.157  0.00  0.00    +0.210 HD
ENDBRANCH  18  27
BRANCH   2  29
ATOM     29  C   LIG    1        1.528   0.176  -0.055  0.00  0.00    -0.071 C 
BRANCH  29  30
ATOM     30  C   LIG    1        2.208   0.821   1.177  0.00  0.00    -0.027 C 
ATOM     31  C   LIG    1        3.623   1.326   1.043  0.00  0.00    +0.002 C 
ATOM     32  C   LIG    1        2.480   2.306   1.223  0.00  0.00    +0.002 C 
ENDBRANCH  29  30
ENDBRANCH   2  29
TORSDOF 5
