REMARK  Name = DB15429
REMARK                            x       y       z     vdW  Elec       q    Type
REMARK                         _______ _______ _______ _____ _____    ______ ____
ROOT
ATOM      1  C   LIG    1       -0.049  -0.013   0.003  0.00  0.00    +0.314 C 
ATOM      2  O   LIG    1       -0.640   1.091   0.001  0.00  0.00    -0.250 OA
ENDROOT
BRANCH   1   3
ATOM      3  O   LIG    1       -0.619  -1.129   0.002  0.00  0.00    -0.480 OA
ATOM      4  H   LIG    1       -1.063  -1.429   0.771  0.00  0.00    +0.295 HD
ENDBRANCH   1   3
BRANCH   1   5
ATOM      5  C   LIG    1        1.488   0.001  -0.020  0.00  0.00    +0.186 C 
BRANCH   5   6
ATOM      6  S   LIG    1        2.123   0.003   1.685  0.00  0.00    -0.167 S 
ATOM      7  H   LIG    1        3.417   0.000   1.349  0.00  0.00    +0.102 HD
ENDBRANCH   5   6
ENDBRANCH   1   5
TORSDOF 3
