REMARK  Name = DB15310
REMARK                            x       y       z     vdW  Elec       q    Type
REMARK                         _______ _______ _______ _____ _____    ______ ____
ROOT
ATOM      1  C   LIG    1       -2.139   1.207   0.043  0.00  0.00    +0.093 A 
ATOM      2  N   LIG    1       -0.834   1.628   0.051  0.00  0.00    -0.339 N 
ATOM      3  H   LIG    1       -0.515   2.581  -0.055  0.00  0.00    +0.167 HD
ATOM      4  C   LIG    1       -0.044   0.534   0.260  0.00  0.00    +0.125 A 
ATOM      5  N   LIG    1       -0.763  -0.558   0.359  0.00  0.00    -0.230 NA
ATOM      6  C   LIG    1       -2.029  -0.185   0.215  0.00  0.00    +0.100 A 
ENDROOT
BRANCH   6   7
ATOM      7  C   LIG    1       -3.109  -1.217   0.239  0.00  0.00    +0.021 A 
ATOM      8  C   LIG    1       -4.127  -1.206  -0.725  0.00  0.00    +0.015 A 
ATOM      9  C   LIG    1       -5.150  -2.160  -0.727  0.00  0.00    +0.049 A 
ATOM     10  C   LIG    1       -5.144  -3.155   0.266  0.00  0.00    +0.156 A 
ATOM     11  N   LIG    1       -5.964  -4.199   0.541  0.00  0.00    -0.215 NA
ATOM     12  C   LIG    1       -5.383  -4.732   1.600  0.00  0.00    +0.246 A 
ATOM     13  N   LIG    1       -4.280  -4.173   2.062  0.00  0.00    -0.154 NA
ATOM     14  N   LIG    1       -4.111  -3.146   1.205  0.00  0.00    -0.220 N 
ATOM     15  C   LIG    1       -3.106  -2.218   1.215  0.00  0.00    +0.124 A 
ENDBRANCH   6   7
BRANCH   1  21
ATOM     16  C   LIG    1       -6.877   1.960   0.750  0.00  0.00    +0.065 C 
ATOM     17  C   LIG    1       -5.572   2.516   0.212  0.00  0.00    +0.039 A 
ATOM     18  C   LIG    1       -5.504   3.778  -0.384  0.00  0.00    +0.023 A 
ATOM     19  C   LIG    1       -4.269   4.221  -0.861  0.00  0.00    +0.004 A 
ATOM     20  C   LIG    1       -3.146   3.401  -0.733  0.00  0.00    +0.030 A 
ATOM     21  C   LIG    1       -3.290   2.148  -0.124  0.00  0.00    +0.090 A 
ATOM     22  N   LIG    1       -4.488   1.709   0.347  0.00  0.00    -0.250 NA
ENDBRANCH   1  21
BRANCH   4  23
ATOM     23  C   LIG    1        1.470   0.612   0.317  0.00  0.00    +0.176 C 
BRANCH  23  24
ATOM     24  N   LIG    1        2.056  -0.318   1.276  0.00  0.00    -0.335 N 
ATOM     25  H   LIG    1        1.479  -1.076   1.611  0.00  0.00    +0.147 HD
BRANCH  24  26
ATOM     26  C   LIG    1        3.442  -0.382   1.510  0.00  0.00    +0.063 A 
ATOM     27  C   LIG    1        4.349   0.520   0.930  0.00  0.00    +0.026 A 
ATOM     28  C   LIG    1        5.716   0.416   1.189  0.00  0.00    +0.002 A 
ATOM     29  C   LIG    1        6.193  -0.587   2.030  0.00  0.00    +0.003 A 
ATOM     30  C   LIG    1        5.303  -1.488   2.612  0.00  0.00    +0.040 A 
ATOM     31  C   LIG    1        3.934  -1.388   2.355  0.00  0.00    +0.144 A 
ATOM     32  F   LIG    1        3.092  -2.276   2.935  0.00  0.00    -0.204 F 
ENDBRANCH  24  26
ENDBRANCH  23  24
ENDBRANCH   4  23
TORSDOF 5
