REMARK  Name = DB15672
REMARK                            x       y       z     vdW  Elec       q    Type
REMARK                         _______ _______ _______ _____ _____    ______ ____
ROOT
ATOM      1  N   LIG    1        1.427  -0.148  -0.024  0.00  0.00    -0.342 N 
ATOM      2  C   LIG    1        2.270  -0.068   1.078  0.00  0.00    +0.049 A 
ATOM      3  C   LIG    1        1.991   0.014   2.450  0.00  0.00    +0.028 A 
ATOM      4  C   LIG    1        3.079   0.071   3.322  0.00  0.00    +0.022 A 
ATOM      5  C   LIG    1        4.393   0.053   2.861  0.00  0.00    +0.042 A 
ATOM      6  C   LIG    1        4.672  -0.022   1.498  0.00  0.00    +0.030 A 
ATOM      7 CL   LIG    1        5.694   0.127   3.992  0.00  0.00    -0.084 Cl
ATOM      8  C   LIG    1        3.606  -0.082   0.587  0.00  0.00    +0.002 A 
ATOM      9  C   LIG    1        3.517  -0.154  -0.835  0.00  0.00    +0.033 A 
ATOM     10  C   LIG    1        2.179  -0.172  -1.190  0.00  0.00    +0.040 A 
ENDROOT
BRANCH   1  11
ATOM     11  C   LIG    1       -0.034  -0.123   0.047  0.00  0.00    +0.124 C 
BRANCH  11  12
ATOM     12  C   LIG    1       -0.554   1.327   0.034  0.00  0.00    +0.044 C 
BRANCH  12  13
ATOM     13  C   LIG    1       -2.088   1.400   0.115  0.00  0.00    +0.167 C 
BRANCH  13  15
ATOM     14  C   LIG    1       -2.031   3.980   1.615  0.00  0.00    +0.194 C 
ATOM     15  S   LIG    1       -2.688   3.194   0.032  0.00  0.00    -0.034 S 
ATOM     16  O   LIG    1       -2.034   3.849  -1.106  0.00  0.00    -0.175 OA
ATOM     17  O   LIG    1       -4.152   3.178   0.117  0.00  0.00    -0.175 OA
ENDBRANCH  13  15
ENDBRANCH  12  13
ENDBRANCH  11  12
ENDBRANCH   1  11
BRANCH  10  18
ATOM     18  C   LIG    1        1.533  -0.203  -2.570  0.00  0.00    +0.180 C 
BRANCH  18  19
ATOM     19  N   LIG    1        2.298   0.552  -3.567  0.00  0.00    -0.285 N 
ATOM     20  C   LIG    1        3.366   0.087  -4.304  0.00  0.00    +0.088 A 
ATOM     21  C   LIG    1        3.949  -1.172  -4.454  0.00  0.00    +0.138 A 
ATOM     22  N   LIG    1        5.020  -1.361  -5.273  0.00  0.00    -0.261 NA
ATOM     23  C   LIG    1        5.508  -0.285  -5.953  0.00  0.00    +0.113 A 
ATOM     24  C   LIG    1        4.961   1.000  -5.849  0.00  0.00    +0.048 A 
ATOM     25  C   LIG    1        3.865   1.154  -4.996  0.00  0.00    +0.073 A 
ATOM     26  N   LIG    1        3.092   2.242  -4.648  0.00  0.00    -0.283 N 
ATOM     27  C   LIG    1        2.136   1.891  -3.745  0.00  0.00    +0.331 A 
ATOM     28  O   LIG    1        1.307   2.626  -3.203  0.00  0.00    -0.246 OA
BRANCH  26  29
ATOM     29  C   LIG    1        3.264   3.622  -5.114  0.00  0.00    +0.240 C 
BRANCH  29  30
ATOM     30  C   LIG    1        4.274   4.441  -4.289  0.00  0.00    +0.407 C 
ATOM     31  F   LIG    1        5.488   3.891  -4.311  0.00  0.00    -0.169 F 
ATOM     32  F   LIG    1        3.902   4.544  -3.013  0.00  0.00    -0.169 F 
ATOM     33  F   LIG    1        4.383   5.676  -4.777  0.00  0.00    -0.169 F 
ENDBRANCH  29  30
ENDBRANCH  26  29
ENDBRANCH  18  19
ENDBRANCH  10  18
TORSDOF 8
