REMARK  Name = DB15107
REMARK                            x       y       z     vdW  Elec       q    Type
REMARK                         _______ _______ _______ _____ _____    ______ ____
ROOT
ATOM      1  C   LIG    1        1.451  -0.037  -0.025  0.00  0.00    +0.177 C 
ENDROOT
BRANCH   1   2
ATOM      2  O   LIG    1        1.935  -1.364   0.112  0.00  0.00    -0.386 OA
ATOM      3  H   LIG    1        2.890  -1.353   0.009  0.00  0.00    +0.210 HD
ENDBRANCH   1   2
BRANCH   1   4
ATOM      4  C   LIG    1       -0.106  -0.047   0.055  0.00  0.00    +0.171 C 
BRANCH   4   5
ATOM      5  O   LIG    1       -0.632   1.261  -0.105  0.00  0.00    -0.387 OA
ATOM      6  H   LIG    1       -0.305   1.625  -0.930  0.00  0.00    +0.210 HD
ENDBRANCH   4   5
BRANCH   4   7
ATOM      7  C   LIG    1       -0.691  -0.670   1.347  0.00  0.00    +0.189 C 
BRANCH   7   8
ATOM      8  O   LIG    1       -0.228  -0.022   2.518  0.00  0.00    -0.392 OA
ATOM      9  H   LIG    1       -0.628  -0.446   3.281  0.00  0.00    +0.210 HD
ENDBRANCH   7   8
ENDBRANCH   4   7
ENDBRANCH   1   4
BRANCH   1  10
ATOM     10  C   LIG    1        2.046   0.639  -1.298  0.00  0.00    +0.186 C 
BRANCH  10  11
ATOM     11  C   LIG    1        3.599   0.705  -1.306  0.00  0.00    +0.259 C 
ATOM     12  F   LIG    1        4.187  -0.493  -1.378  0.00  0.00    -0.235 F 
BRANCH  11  13
ATOM     13  C   LIG    1        4.157   1.613  -2.414  0.00  0.00    +0.262 C 
ATOM     14  O   LIG    1        4.941   1.199  -3.269  0.00  0.00    -0.298 OA
ENDBRANCH  11  13
ENDBRANCH  10  11
BRANCH  10  15
ATOM     15  O   LIG    1        1.565   0.000  -2.473  0.00  0.00    -0.386 OA
ATOM     16  H   LIG    1        0.608  -0.059  -2.423  0.00  0.00    +0.210 HD
ENDBRANCH  10  15
ENDBRANCH   1  10
TORSDOF 9
