REMARK  Name = DB15286
REMARK                            x       y       z     vdW  Elec       q    Type
REMARK                         _______ _______ _______ _____ _____    ______ ____
ROOT
ATOM      1  C   LIG    1       -2.906  -0.238   2.251  0.00  0.00    +0.000 C 
ATOM      2  N   LIG    1       -1.944   0.079   1.351  0.00  0.00    +0.000 N 
ATOM      3  C   LIG    1       -2.004   1.183   0.383  0.00  0.00    +0.000 C 
ATOM      4  C   LIG    1       -0.526   1.495   0.042  0.00  0.00    +0.000 C 
ATOM      5  C   LIG    1        0.061   0.062   0.136  0.00  0.00    +0.000 C 
ATOM      6  C   LIG    1       -0.643  -0.592   1.332  0.00  0.00    +0.000 C 
ATOM      7  O   LIG    1       -2.758  -1.146   3.079  0.00  0.00    +0.000 OA
ENDROOT
BRANCH   4   8
ATOM      8  N   LIG    1       -0.382   2.053  -1.389  0.00  0.00    +0.000 N 
ATOM      9  H   LIG    1       -0.849   2.945  -1.464  0.00  0.00    +0.000 HD
ATOM     10  H   LIG    1        0.595   2.168  -1.620  0.00  0.00    +0.000 HD
ATOM     11  H   LIG    1       -0.796   1.414  -2.051  0.00  0.00    +0.000 HD
ENDBRANCH   4   8
BRANCH   1  13
ATOM     12  C   LIG    1       -4.133   1.782   3.247  0.00  0.00    +0.000 C 
ATOM     13  C   LIG    1       -4.214   0.610   2.247  0.00  0.00    +0.000 C 
BRANCH  13  14
ATOM     14  N   LIG    1       -5.363  -0.302   2.585  0.00  0.00    +0.000 N 
ATOM     15  H   LIG    1       -5.177  -0.745   3.474  0.00  0.00    +0.000 HD
ATOM     16  H   LIG    1       -6.211   0.244   2.647  0.00  0.00    +0.000 HD
ATOM     17  H   LIG    1       -5.457  -1.002   1.862  0.00  0.00    +0.000 HD
ENDBRANCH  13  14
ENDBRANCH   1  13
BRANCH   4  18
ATOM     18  C   LIG    1        0.145   2.559   0.994  0.00  0.00    +0.000 C 
ATOM     19  O   LIG    1       -0.053   2.429   2.224  0.00  0.00    +0.000 OA
BRANCH  18  20
ATOM     20  O   LIG    1        0.861   3.478   0.529  0.00  0.00    +0.000 OA
ATOM     21  H   LIG    1        1.254   4.104   1.105  0.00  0.00    +0.000 HD
ENDBRANCH  18  20
ENDBRANCH   4  18
BRANCH   5  22
ATOM     22  C   LIG    1        1.605  -0.063   0.167  0.00  0.00    +0.000 C 
BRANCH  22  23
ATOM     23  C   LIG    1        2.113  -1.511   0.026  0.00  0.00    +0.000 C 
BRANCH  23  24
ATOM     24  C   LIG    1        3.648  -1.609   0.022  0.00  0.00    +0.000 C 
BRANCH  24  25
ATOM     25  B   LIG    1        4.167  -3.086  -0.144  0.00  0.00    +0.000 B 
BRANCH  25  26
ATOM     26  O   LIG    1        4.362  -3.859   0.961  0.00  0.00    +0.000 OA
ATOM     27  H   LIG    1        4.668  -4.739   0.734  0.00  0.00    +0.000 HD
ENDBRANCH  25  26
BRANCH  25  28
ATOM     28  O   LIG    1        4.395  -3.582  -1.393  0.00  0.00    +0.000 OA
ATOM     29  H   LIG    1        4.703  -4.491  -1.368  0.00  0.00    +0.000 HD
ENDBRANCH  25  28
ENDBRANCH  24  25
ENDBRANCH  23  24
ENDBRANCH  22  23
ENDBRANCH   5  22
TORSDOF 11
