REMARK  Name = DB15464
REMARK                            x       y       z     vdW  Elec       q    Type
REMARK                         _______ _______ _______ _____ _____    ______ ____
ROOT
ATOM      1  C   LIG    1       -6.507   0.935   0.000  0.00  0.00    +0.046 A 
ATOM      2  C   LIG    1       -7.093  -0.328   0.000  0.00  0.00    +0.118 A 
ATOM      3  C   LIG    1       -6.289  -1.466   0.000  0.00  0.00    +0.061 A 
ATOM      4  C   LIG    1       -4.892  -1.354   0.000  0.00  0.00    +0.071 A 
ATOM      5  C   LIG    1       -4.042  -2.587   0.000  0.00  0.00    +0.345 A 
ATOM      6  O   LIG    1       -4.474  -3.740   0.000  0.00  0.00    -0.245 OA
ATOM      7  O   LIG    1       -2.681  -2.453   0.000  0.00  0.00    -0.422 OA
ATOM      8  C   LIG    1       -2.079  -1.206   0.000  0.00  0.00    +0.143 A 
ATOM      9  C   LIG    1       -0.683  -1.206   0.000  0.00  0.00    +0.092 A 
ATOM     10  C   LIG    1        0.013   0.002   0.000  0.00  0.00    +0.120 A 
ATOM     11  C   LIG    1       -0.686   1.208   0.000  0.00  0.00    +0.046 A 
ATOM     12  C   LIG    1       -2.081   1.211   0.000  0.00  0.00    +0.016 A 
ATOM     13  C   LIG    1       -2.800   0.006   0.000  0.00  0.00    +0.026 A 
ATOM     14  C   LIG    1       -4.295  -0.077   0.000  0.00  0.00    -0.000 A 
ATOM     15  C   LIG    1       -5.119   1.059   0.000  0.00  0.00    +0.013 A 
ENDROOT
BRANCH   2  16
ATOM     16  O   LIG    1       -8.457  -0.451   0.000  0.00  0.00    -0.507 OA
ATOM     17  H   LIG    1       -8.911   0.395   0.000  0.00  0.00    +0.292 HD
ENDBRANCH   2  16
BRANCH  10  18
ATOM     18  O   LIG    1        1.383   0.002   0.000  0.00  0.00    -0.507 OA
ATOM     19  H   LIG    1        1.756   0.885   0.000  0.00  0.00    +0.292 HD
ENDBRANCH  10  18
TORSDOF 2
