REMARK  Name = DB15356
REMARK                            x       y       z     vdW  Elec       q    Type
REMARK                         _______ _______ _______ _____ _____    ______ ____
ROOT
ATOM      1  C   LIG    1        0.528   0.085  -0.149  0.00  0.00    +0.048 C 
ATOM      2  C   LIG    1        0.310  -0.917  -1.314  0.00  0.00    +0.016 C 
ATOM      3  C   LIG    1       -1.002  -1.664  -1.037  0.00  0.00    +0.001 C 
ATOM      4  C   LIG    1       -1.165  -1.653   0.489  0.00  0.00    +0.001 C 
ATOM      5  C   LIG    1       -0.043  -0.751   1.035  0.00  0.00    +0.016 C 
ENDROOT
BRANCH   1   8
ATOM      6  N   LIG    1        0.101   2.222  -1.318  0.00  0.00    -0.304 N 
ATOM      7  H   LIG    1        1.076   2.110  -1.552  0.00  0.00    +0.149 HD
ATOM      8  C   LIG    1       -0.373   1.335  -0.418  0.00  0.00    +0.220 C 
ATOM      9  O   LIG    1       -1.443   1.496   0.174  0.00  0.00    -0.275 OA
BRANCH   6  13
ATOM     10  N   LIG    1       -2.297   2.601  -3.150  0.00  0.00    -0.259 N 
ATOM     11  C   LIG    1       -1.976   3.450  -2.116  0.00  0.00    +0.241 C 
ATOM     12  O   LIG    1       -2.779   4.165  -1.510  0.00  0.00    -0.273 OA
ATOM     13  C   LIG    1       -0.467   3.521  -1.739  0.00  0.00    +0.160 C 
ATOM     14  C   LIG    1        0.415   4.239  -2.784  0.00  0.00    +0.036 C 
ATOM     15  C   LIG    1        0.120   3.894  -4.257  0.00  0.00    +0.039 C 
ATOM     16  C   LIG    1       -0.230   2.431  -4.521  0.00  0.00    -0.026 A 
ATOM     17  C   LIG    1        0.611   1.660  -5.333  0.00  0.00    +0.005 A 
ATOM     18  C   LIG    1        0.331   0.324  -5.598  0.00  0.00    +0.000 A 
ATOM     19  C   LIG    1       -0.803  -0.262  -5.053  0.00  0.00    +0.002 A 
ATOM     20  C   LIG    1       -1.646   0.489  -4.239  0.00  0.00    +0.024 A 
ATOM     21  C   LIG    1       -1.379   1.834  -3.932  0.00  0.00    +0.040 A 
BRANCH  10  22
ATOM     22  C   LIG    1       -3.751   2.498  -3.477  0.00  0.00    +0.234 C 
BRANCH  22  23
ATOM     23  C   LIG    1       -4.157   3.094  -4.849  0.00  0.00    +0.323 C 
ATOM     24  O   LIG    1       -5.247   2.692  -5.313  0.00  0.00    -0.249 OA
BRANCH  23  25
ATOM     25  O   LIG    1       -3.428   3.946  -5.411  0.00  0.00    -0.480 OA
ATOM     26  H   LIG    1       -3.344   3.947  -6.344  0.00  0.00    +0.295 HD
ENDBRANCH  23  25
ENDBRANCH  22  23
ENDBRANCH  10  22
ENDBRANCH   6  13
ENDBRANCH   1   8
BRANCH   1  27
ATOM     27  C   LIG    1        2.046   0.426   0.053  0.00  0.00    +0.030 C 
BRANCH  27  28
ATOM     28  C   LIG    1        2.470   1.183   1.357  0.00  0.00    +0.099 C 
BRANCH  28  29
ATOM     29  C   LIG    1        2.167   2.707   1.278  0.00  0.00    +0.308 C 
ATOM     30  O   LIG    1        2.747   3.388   0.399  0.00  0.00    -0.251 OA
BRANCH  29  31
ATOM     31  O   LIG    1        1.353   3.178   2.105  0.00  0.00    -0.480 OA
ATOM     32  H   LIG    1        1.145   4.091   2.089  0.00  0.00    +0.295 HD
ENDBRANCH  29  31
ENDBRANCH  28  29
BRANCH  28  33
ATOM     33  C   LIG    1        3.973   0.934   1.690  0.00  0.00    +0.019 C 
BRANCH  33  34
ATOM     34  C   LIG    1        4.457   1.447   3.069  0.00  0.00    +0.036 C 
BRANCH  34  35
ATOM     35  C   LIG    1        3.778   0.765   4.259  0.00  0.00    -0.040 A 
ATOM     36  C   LIG    1        4.144  -0.563   4.662  0.00  0.00    -0.015 A 
ATOM     37  C   LIG    1        5.161  -1.328   4.021  0.00  0.00    +0.009 A 
ATOM     38  C   LIG    1        5.470  -2.614   4.454  0.00  0.00    +0.001 A 
ATOM     39  C   LIG    1        4.794  -3.180   5.527  0.00  0.00    +0.001 A 
ATOM     40  C   LIG    1        3.797  -2.468   6.186  0.00  0.00    +0.008 A 
ATOM     41  C   LIG    1        3.455  -1.156   5.770  0.00  0.00    -0.018 A 
ATOM     42  C   LIG    1        2.443  -0.423   6.436  0.00  0.00    +0.008 A 
ATOM     43  C   LIG    1        2.117   0.863   6.023  0.00  0.00    +0.001 A 
ATOM     44  C   LIG    1        2.777   1.448   4.952  0.00  0.00    +0.004 A 
ENDBRANCH  34  35
ENDBRANCH  33  34
ENDBRANCH  28  33
ENDBRANCH  27  28
ENDBRANCH   1  27
TORSDOF 12
