REMARK  Name = DB15206
REMARK                            x       y       z     vdW  Elec       q    Type
REMARK                         _______ _______ _______ _____ _____    ______ ____
ROOT
ATOM      1  O   LIG    1        2.188  -2.082   0.527  0.00  0.00    -0.284 OA
ENDROOT
BRANCH   1   2
ATOM      2  P   LIG    1        1.868  -0.490   0.660  0.00  0.00    +0.462 P 
ATOM      3  O   LIG    1        2.201   0.088   1.991  0.00  0.00    -0.228 OA
BRANCH   2   4
ATOM      4  N   LIG    1        0.241  -0.357   0.178  0.00  0.00    -0.199 NA
ATOM      5  H   LIG    1       -0.378  -1.165   0.247  0.00  0.00    +0.135 HD
BRANCH   4   6
ATOM      6  C   LIG    1       -0.406   0.922  -0.097  0.00  0.00    +0.171 C 
ATOM      7  C   LIG    1       -1.631   1.151   0.810  0.00  0.00    +0.036 C 
BRANCH   6   8
ATOM      8  C   LIG    1       -0.792   1.007  -1.558  0.00  0.00    +0.325 C 
ATOM      9  O   LIG    1       -1.746   0.391  -2.042  0.00  0.00    -0.249 OA
BRANCH   8  10
ATOM     10  O   LIG    1        0.040   1.829  -2.245  0.00  0.00    -0.461 OA
BRANCH  10  12
ATOM     11  C   LIG    1        1.192   2.608  -4.197  0.00  0.00    +0.052 C 
ATOM     12  C   LIG    1       -0.143   2.097  -3.636  0.00  0.00    +0.170 C 
ATOM     13  C   LIG    1       -1.279   3.115  -3.857  0.00  0.00    +0.052 C 
ENDBRANCH  10  12
ENDBRANCH   8  10
ENDBRANCH   6   8
ENDBRANCH   4   6
ENDBRANCH   2   4
BRANCH   2  14
ATOM     14  O   LIG    1        2.710   0.169  -0.577  0.00  0.00    -0.413 OA
BRANCH  14  15
ATOM     15  C   LIG    1        2.848  -0.287  -1.869  0.00  0.00    +0.131 A 
ATOM     16  C   LIG    1        2.000  -1.243  -2.446  0.00  0.00    +0.046 A 
ATOM     17  C   LIG    1        2.195  -1.643  -3.765  0.00  0.00    +0.004 A 
ATOM     18  C   LIG    1        3.236  -1.091  -4.508  0.00  0.00    +0.000 A 
ATOM     19  C   LIG    1        4.087  -0.146  -3.942  0.00  0.00    +0.004 A 
ATOM     20  C   LIG    1        3.889   0.255  -2.623  0.00  0.00    +0.046 A 
ENDBRANCH  14  15
ENDBRANCH   2  14
ENDBRANCH   1   2
BRANCH   1  21
ATOM     21  C   LIG    1        1.537  -3.021   1.361  0.00  0.00    +0.206 C 
BRANCH  21  22
ATOM     22  C   LIG    1        2.261  -4.379   1.325  0.00  0.00    +0.177 C 
ATOM     23  C   LIG    1        3.674  -4.387   1.918  0.00  0.00    +0.170 C 
ATOM     24  C   LIG    1        4.394  -5.503   1.146  0.00  0.00    +0.116 C 
ATOM     25 CL   LIG    1        3.944  -7.087   1.873  0.00  0.00    -0.111 Cl
ATOM     26  C   LIG    1        5.933  -5.390   1.092  0.00  0.00    +0.035 C 
ATOM     27  C   LIG    1        3.679  -5.424  -0.231  0.00  0.00    +0.247 C 
ATOM     28  O   LIG    1        2.436  -4.807  -0.022  0.00  0.00    -0.346 OA
BRANCH  27  29
ATOM     29  N   LIG    1        4.350  -4.902  -1.429  0.00  0.00    -0.272 N 
ATOM     30  C   LIG    1        4.753  -3.578  -1.479  0.00  0.00    +0.331 A 
ATOM     31  O   LIG    1        4.664  -2.743  -0.583  0.00  0.00    -0.246 OA
ATOM     32  N   LIG    1        5.304  -3.202  -2.678  0.00  0.00    -0.275 N 
ATOM     33  H   LIG    1        5.591  -2.235  -2.729  0.00  0.00    +0.173 HD
ATOM     34  C   LIG    1        5.502  -3.924  -3.819  0.00  0.00    +0.254 A 
ATOM     35  O   LIG    1        5.976  -3.439  -4.844  0.00  0.00    -0.268 OA
ATOM     36  C   LIG    1        5.075  -5.303  -3.689  0.00  0.00    +0.088 A 
ATOM     37  C   LIG    1        4.527  -5.718  -2.530  0.00  0.00    +0.098 A 
ENDBRANCH  27  29
BRANCH  23  38
ATOM     38  O   LIG    1        3.693  -4.518   3.329  0.00  0.00    -0.387 OA
ATOM     39  H   LIG    1        3.298  -3.733   3.715  0.00  0.00    +0.210 HD
ENDBRANCH  23  38
ENDBRANCH  21  22
ENDBRANCH   1  21
TORSDOF 12
