REMARK  Name = DB15431
REMARK                            x       y       z     vdW  Elec       q    Type
REMARK                         _______ _______ _______ _____ _____    ______ ____
ROOT
ATOM      1  C   LIG    1        1.468  -0.031  -0.043  0.00  0.00    +0.085 C 
ENDROOT
BRANCH   1   2
ATOM      2  C   LIG    1        1.897   0.114   1.421  0.00  0.00    -0.028 A 
ATOM      3  C   LIG    1        1.374  -0.728   2.408  0.00  0.00    +0.007 A 
ATOM      4  C   LIG    1        1.774  -0.588   3.734  0.00  0.00    +0.021 A 
ATOM      5  C   LIG    1        2.704   0.389   4.093  0.00  0.00    +0.053 A 
ATOM      6 CL   LIG    1        3.152   0.509   5.761  0.00  0.00    -0.083 Cl
ATOM      7  C   LIG    1        3.249   1.240   3.113  0.00  0.00    +0.073 A 
ATOM      8  C   LIG    1        2.837   1.085   1.781  0.00  0.00    +0.019 A 
BRANCH   7   9
ATOM      9  C   LIG    1        4.273   2.321   3.478  0.00  0.00    +0.419 C 
ATOM     10  F   LIG    1        4.672   3.031   2.421  0.00  0.00    -0.166 F 
ATOM     11  F   LIG    1        5.351   1.757   4.023  0.00  0.00    -0.166 F 
ATOM     12  F   LIG    1        3.741   3.168   4.361  0.00  0.00    -0.166 F 
ENDBRANCH   7   9
ENDBRANCH   1   2
BRANCH   1  13
ATOM     13  N   LIG    1        0.013   0.106  -0.206  0.00  0.00    -0.323 N 
ATOM     14  H   LIG    1       -0.439  -0.539  -0.837  0.00  0.00    +0.148 HD
BRANCH  13  20
ATOM     15  C   LIG    1       -4.255   2.577   0.137  0.00  0.00    +0.063 A 
ATOM     16  C   LIG    1       -2.827   2.490   0.322  0.00  0.00    +0.088 A 
ATOM     17  N   LIG    1       -2.122   3.542   0.847  0.00  0.00    -0.235 NA
ATOM     18  C   LIG    1       -0.786   3.400   0.991  0.00  0.00    +0.223 A 
ATOM     19  N   LIG    1       -0.053   2.314   0.668  0.00  0.00    -0.220 NA
ATOM     20  C   LIG    1       -0.725   1.257   0.145  0.00  0.00    +0.130 A 
ATOM     21  C   LIG    1       -2.141   1.289  -0.064  0.00  0.00    +0.041 A 
ATOM     22  C   LIG    1       -2.884   0.217  -0.626  0.00  0.00    +0.013 A 
ATOM     23  C   LIG    1       -4.254   0.332  -0.810  0.00  0.00    +0.002 A 
ATOM     24  C   LIG    1       -4.923   1.490  -0.440  0.00  0.00    +0.015 A 
BRANCH  15  28
ATOM     25  N   LIG    1       -4.814   4.365   1.691  0.00  0.00    -0.325 N 
ATOM     26  H   LIG    1       -4.046   4.034   2.258  0.00  0.00    +0.145 HD
ATOM     27  H   LIG    1       -5.356   5.157   2.002  0.00  0.00    +0.145 HD
ATOM     28  C   LIG    1       -5.079   3.790   0.514  0.00  0.00    +0.244 C 
ATOM     29  O   LIG    1       -5.987   4.193  -0.212  0.00  0.00    -0.270 OA
ENDBRANCH  15  28
ENDBRANCH  13  20
ENDBRANCH   1  13
BRANCH   1  30
ATOM     30  C   LIG    1        2.028  -1.340  -0.651  0.00  0.00    -0.052 C 
BRANCH  30  31
ATOM     31  N   LIG    1        1.590  -1.526  -2.119  0.00  0.00    +0.381 N 
ATOM     32  H   LIG    1        0.581  -1.545  -2.168  0.00  0.00    -0.082 HD
ATOM     33  C   LIG    1        2.192  -2.697  -2.899  0.00  0.00    -0.081 C 
ATOM     34  C   LIG    1        2.445  -1.766  -4.092  0.00  0.00    -0.037 C 
ATOM     35  C   LIG    1        2.168  -0.573  -3.169  0.00  0.00    -0.081 C 
ENDBRANCH  30  31
ENDBRANCH   1  30
TORSDOF 7
