REMARK  Name = DB15281
REMARK                            x       y       z     vdW  Elec       q    Type
REMARK                         _______ _______ _______ _____ _____    ______ ____
ROOT
ATOM      1  C   LIG    1        1.459  -0.106  -0.182  0.00  0.00    +0.007 A 
ATOM      2  C   LIG    1        2.083   1.150   0.236  0.00  0.00    +0.028 A 
ATOM      3  C   LIG    1        3.421   1.175   0.377  0.00  0.00    +0.090 A 
ATOM      4  N   LIG    1        4.267   0.107   0.157  0.00  0.00    -0.306 N 
ATOM      5  C   LIG    1        3.754  -1.113  -0.249  0.00  0.00    +0.253 A 
ATOM      6  O   LIG    1        4.426  -2.117  -0.492  0.00  0.00    -0.268 OA
ATOM      7  C   LIG    1        2.297  -1.160  -0.395  0.00  0.00    +0.080 A 
ENDROOT
BRANCH   1  10
ATOM      8  C   LIG    1       -2.037   0.897  -0.722  0.00  0.00    +0.221 A 
ATOM      9  N   LIG    1       -0.691   0.953  -0.528  0.00  0.00    -0.214 NA
ATOM     10  C   LIG    1       -0.020  -0.223  -0.358  0.00  0.00    +0.076 A 
ATOM     11  C   LIG    1       -0.702  -1.450  -0.393  0.00  0.00    +0.048 A 
ATOM     12  C   LIG    1       -2.083  -1.411  -0.595  0.00  0.00    +0.116 A 
ATOM     13  N   LIG    1       -2.763  -0.249  -0.760  0.00  0.00    -0.223 NA
BRANCH   8  14
ATOM     14  N   LIG    1       -2.778   2.077  -0.901  0.00  0.00    -0.269 N 
ATOM     15  H   LIG    1       -3.762   1.890  -1.025  0.00  0.00    +0.156 HD
BRANCH  14  18
ATOM     16  C   LIG    1       -4.653   4.416  -1.271  0.00  0.00    +0.174 C 
ATOM     17  N   LIG    1       -3.208   4.445  -1.075  0.00  0.00    -0.253 N 
ATOM     18  C   LIG    1       -2.337   3.384  -0.926  0.00  0.00    +0.123 A 
ATOM     19  C   LIG    1       -1.089   3.989  -0.829  0.00  0.00    +0.065 A 
ATOM     20  C   LIG    1       -1.320   5.361  -0.949  0.00  0.00    +0.136 A 
ATOM     21  N   LIG    1       -2.591   5.636  -1.108  0.00  0.00    -0.178 NA
ENDBRANCH  14  18
ENDBRANCH   8  14
ENDBRANCH   1  10
BRANCH   4  22
ATOM     22  C   LIG    1        5.739   0.225   0.334  0.00  0.00    +0.145 C 
BRANCH  22  23
ATOM     23  C   LIG    1        6.379   1.193  -0.680  0.00  0.00    -0.020 A 
ATOM     24  C   LIG    1        6.099   1.035  -2.045  0.00  0.00    +0.007 A 
ATOM     25  C   LIG    1        6.649   1.895  -2.993  0.00  0.00    +0.023 A 
ATOM     26  C   LIG    1        7.492   2.931  -2.592  0.00  0.00    +0.076 A 
ATOM     27 CL   LIG    1        8.166   3.992  -3.777  0.00  0.00    -0.081 Cl
ATOM     28  C   LIG    1        7.782   3.103  -1.236  0.00  0.00    +0.142 A 
ATOM     29  F   LIG    1        8.596   4.105  -0.831  0.00  0.00    -0.204 F 
ATOM     30  C   LIG    1        7.229   2.240  -0.289  0.00  0.00    +0.045 A 
ENDBRANCH  22  23
BRANCH  22  31
ATOM     31  C   LIG    1        6.134   0.456   1.819  0.00  0.00    +0.185 C 
BRANCH  31  32
ATOM     32  O   LIG    1        5.644  -0.580   2.648  0.00  0.00    -0.393 OA
ATOM     33  H   LIG    1        5.912  -0.402   3.553  0.00  0.00    +0.209 HD
ENDBRANCH  31  32
ENDBRANCH  22  31
ENDBRANCH   4  22
TORSDOF 7
