REMARK  Name = DB15423
REMARK                            x       y       z     vdW  Elec       q    Type
REMARK                         _______ _______ _______ _____ _____    ______ ____
ROOT
ATOM      1  C   LIG    1        0.927  -1.710   4.483  0.00  0.00    +0.159 C 
ENDROOT
BRANCH   1   2
ATOM      2  C   LIG    1        1.734  -1.796   5.799  0.00  0.00    +0.231 C 
ATOM      3  O   LIG    1        1.166  -1.825   6.890  0.00  0.00    -0.274 OA
ATOM      4  N   LIG    1        3.062  -1.870   5.680  0.00  0.00    -0.328 N 
ATOM      5  H   LIG    1        3.641  -1.937   6.504  0.00  0.00    +0.145 HD
ATOM      6  H   LIG    1        3.495  -1.863   4.767  0.00  0.00    +0.145 HD
ENDBRANCH   1   2
BRANCH   1   7
ATOM      7  N   LIG    1       -0.148  -0.713   4.528  0.00  0.00    -0.302 N 
ATOM      8  H   LIG    1        0.005   0.086   3.930  0.00  0.00    +0.150 HD
ATOM      9  C   LIG    1       -1.338  -0.804   5.149  0.00  0.00    +0.234 C 
ATOM     10  O   LIG    1       -1.677  -1.710   5.910  0.00  0.00    -0.274 OA
BRANCH   9  11
ATOM     11  C   LIG    1       -2.358   0.281   4.764  0.00  0.00    +0.156 C 
ATOM     12  C   LIG    1       -3.040   0.885   6.003  0.00  0.00    +0.038 C 
BRANCH  11  13
ATOM     13  N   LIG    1       -3.386  -0.259   3.868  0.00  0.00    -0.302 N 
ATOM     14  H   LIG    1       -4.322  -0.285   4.246  0.00  0.00    +0.150 HD
ATOM     15  C   LIG    1       -3.159  -0.799   2.656  0.00  0.00    +0.242 C 
ATOM     16  O   LIG    1       -2.046  -0.829   2.128  0.00  0.00    -0.273 OA
BRANCH  15  17
ATOM     17  C   LIG    1       -4.351  -1.488   1.966  0.00  0.00    +0.201 C 
ATOM     18  C   LIG    1       -4.798  -0.677   0.737  0.00  0.00    +0.048 C 
BRANCH  17  19
ATOM     19  O   LIG    1       -3.977  -2.784   1.468  0.00  0.00    -0.360 OA
BRANCH  19  20
ATOM     20  C   LIG    1       -3.406  -3.799   2.322  0.00  0.00    +0.178 C 
BRANCH  20  21
ATOM     21  C   LIG    1       -4.474  -4.445   3.265  0.00  0.00    +0.183 C 
BRANCH  21  22
ATOM     22  C   LIG    1       -3.954  -5.699   4.044  0.00  0.00    +0.171 C 
BRANCH  22  23
ATOM     23  O   LIG    1       -4.998  -6.412   4.677  0.00  0.00    -0.387 OA
ATOM     24  H   LIG    1       -5.701  -6.559   4.040  0.00  0.00    +0.210 HD
ENDBRANCH  22  23
BRANCH  22  25
ATOM     25  C   LIG    1       -2.773  -5.470   5.018  0.00  0.00    +0.189 C 
BRANCH  25  26
ATOM     26  O   LIG    1       -3.080  -4.585   6.075  0.00  0.00    -0.392 OA
ATOM     27  H   LIG    1       -3.241  -3.711   5.711  0.00  0.00    +0.210 HD
ENDBRANCH  25  26
ENDBRANCH  22  25
ENDBRANCH  21  22
BRANCH  21  28
ATOM     28  O   LIG    1       -4.921  -3.394   4.138  0.00  0.00    -0.341 OA
BRANCH  28  29
ATOM     29  C   LIG    1       -6.144  -3.432   4.836  0.00  0.00    +0.274 C 
ATOM     30  C   LIG    1       -7.336  -3.933   3.980  0.00  0.00    +0.160 C 
ATOM     31  C   LIG    1       -8.626  -3.907   4.843  0.00  0.00    +0.171 C 
ATOM     32  C   LIG    1       -8.420  -4.621   6.197  0.00  0.00    +0.176 C 
ATOM     33  C   LIG    1       -7.137  -4.095   6.892  0.00  0.00    +0.178 C 
ATOM     34  O   LIG    1       -6.018  -4.191   6.007  0.00  0.00    -0.341 OA
BRANCH  30  35
ATOM     35  N   LIG    1       -7.473  -3.264   2.676  0.00  0.00    -0.305 N 
ATOM     36  H   LIG    1       -7.352  -2.262   2.679  0.00  0.00    +0.149 HD
ATOM     37  C   LIG    1       -7.747  -3.865   1.503  0.00  0.00    +0.210 C 
ATOM     38  O   LIG    1       -7.886  -5.081   1.370  0.00  0.00    -0.276 OA
ATOM     39  C   LIG    1       -7.896  -2.954   0.290  0.00  0.00    +0.109 C 
ENDBRANCH  30  35
BRANCH  31  40
ATOM     40  O   LIG    1       -9.747  -4.424   4.144  0.00  0.00    -0.387 OA
ATOM     41  H   LIG    1       -9.576  -5.344   3.930  0.00  0.00    +0.210 HD
ENDBRANCH  31  40
BRANCH  32  42
ATOM     42  O   LIG    1       -9.551  -4.479   7.039  0.00  0.00    -0.387 OA
ATOM     43  H   LIG    1       -9.481  -5.118   7.752  0.00  0.00    +0.210 HD
ENDBRANCH  32  42
BRANCH  33  44
ATOM     44  C   LIG    1       -6.771  -4.830   8.201  0.00  0.00    +0.190 C 
BRANCH  44  45
ATOM     45  O   LIG    1       -6.598  -6.219   8.001  0.00  0.00    -0.392 OA
ATOM     46  H   LIG    1       -6.311  -6.615   8.828  0.00  0.00    +0.210 HD
ENDBRANCH  44  45
ENDBRANCH  33  44
ENDBRANCH  28  29
ENDBRANCH  21  28
ENDBRANCH  20  21
BRANCH  20  47
ATOM     47  CA  LIG    1       -2.684  -4.809   1.368  0.00  0.00    +0.167 C 
BRANCH  47  48
ATOM     48  N   LIG    1       -3.577  -5.718   0.615  0.00  0.00    -0.304 N 
ATOM     49  H   LIG    1       -3.529  -6.680   0.917  0.00  0.00    +0.149 HD
ATOM     50  C   LIG    1       -4.465  -5.426  -0.356  0.00  0.00    +0.211 C 
ATOM     51  O   LIG    1       -4.648  -4.298  -0.807  0.00  0.00    -0.276 OA
ATOM     52  C   LIG    1       -5.280  -6.593  -0.901  0.00  0.00    +0.109 C 
ENDBRANCH  47  48
BRANCH  47  53
ATOM     53  C   LIG    1       -1.655  -4.134   0.466  0.00  0.00    +0.248 C 
ATOM     54  O   LIG    1       -1.466  -4.415  -0.718  0.00  0.00    -0.299 OA
ENDBRANCH  47  53
ENDBRANCH  20  47
ENDBRANCH  19  20
ENDBRANCH  17  19
ENDBRANCH  15  17
ENDBRANCH  11  13
ENDBRANCH   9  11
ENDBRANCH   1   7
BRANCH   1  55
ATOM     55  C   LIG    1        0.409  -3.104   4.028  0.00  0.00    +0.041 C 
BRANCH  55  56
ATOM     56  C   LIG    1        1.461  -4.156   3.603  0.00  0.00    +0.098 C 
BRANCH  56  59
ATOM     57  N   LIG    1        2.007  -4.119   1.206  0.00  0.00    -0.303 N 
ATOM     58  H   LIG    1        1.183  -4.693   1.101  0.00  0.00    +0.149 HD
ATOM     59  C   LIG    1        2.358  -3.708   2.441  0.00  0.00    +0.214 C 
ATOM     60  O   LIG    1        3.347  -3.010   2.662  0.00  0.00    -0.276 OA
BRANCH  57  61
ATOM     61  C   LIG    1        2.677  -3.748  -0.052  0.00  0.00    +0.179 C 
ATOM     62  C   LIG    1        2.194  -4.677  -1.184  0.00  0.00    +0.040 C 
BRANCH  61  63
ATOM     63  C   LIG    1        2.377  -2.288  -0.379  0.00  0.00    +0.327 C 
ATOM     64  O   LIG    1        3.275  -1.470  -0.588  0.00  0.00    -0.249 OA
BRANCH  63  65
ATOM     65  O   LIG    1        1.047  -2.021  -0.448  0.00  0.00    -0.460 OA
BRANCH  65  66
ATOM     66  C   LIG    1        0.585  -0.709  -0.752  0.00  0.00    +0.280 C 
BRANCH  66  67
ATOM     67  C   LIG    1       -0.906  -0.742  -1.132  0.00  0.00    +0.251 C 
BRANCH  67  68
ATOM     68  C   LIG    1       -1.512   0.677  -1.182  0.00  0.00    +0.280 C 
BRANCH  68  69
ATOM     69  O   LIG    1       -1.542   1.230   0.127  0.00  0.00    -0.461 OA
BRANCH  69  70
ATOM     70  C   LIG    1       -1.995   2.476   0.347  0.00  0.00    +0.307 C 
ATOM     71  O   LIG    1       -2.377   3.271  -0.515  0.00  0.00    -0.251 OA
BRANCH  70  72
ATOM     72  C   LIG    1       -1.972   2.823   1.840  0.00  0.00    +0.120 C 
BRANCH  72  73
ATOM     73  C   LIG    1       -2.124   4.324   2.159  0.00  0.00    +0.011 C 
BRANCH  73  74
ATOM     74  C   LIG    1       -2.076   4.606   3.671  0.00  0.00    +0.001 C 
BRANCH  74  75
ATOM     75  C   LIG    1       -2.151   6.108   4.002  0.00  0.00    +0.000 C 
BRANCH  75  76
ATOM     76  C   LIG    1       -2.076   6.394   5.515  0.00  0.00    +0.000 C 
BRANCH  76  77
ATOM     77  C   LIG    1       -1.982   7.890   5.874  0.00  0.00    +0.000 C 
BRANCH  77  78
ATOM     78  C   LIG    1       -3.239   8.712   5.529  0.00  0.00    -0.000 C 
BRANCH  78  79
ATOM     79  C   LIG    1       -3.118  10.188   5.951  0.00  0.00    -0.000 C 
BRANCH  79  80
ATOM     80  C   LIG    1       -4.375  11.015   5.625  0.00  0.00    -0.000 C 
BRANCH  80  81
ATOM     81  C   LIG    1       -4.245  12.490   6.045  0.00  0.00    -0.000 C 
BRANCH  81  82
ATOM     82  C   LIG    1       -5.506  13.318   5.729  0.00  0.00    -0.000 C 
BRANCH  82  83
ATOM     83  C   LIG    1       -5.376  14.822   6.045  0.00  0.00    -0.000 C 
BRANCH  83  84
ATOM     84  C   LIG    1       -5.209  15.143   7.546  0.00  0.00    -0.000 C 
BRANCH  84  86
ATOM     85  C   LIG    1       -4.093  17.462   7.297  0.00  0.00    +0.004 C 
ATOM     86  C   LIG    1       -5.258  16.646   7.880  0.00  0.00    -0.003 C 
ENDBRANCH  84  86
ENDBRANCH  83  84
ENDBRANCH  82  83
ENDBRANCH  81  82
ENDBRANCH  80  81
ENDBRANCH  79  80
ENDBRANCH  78  79
ENDBRANCH  77  78
ENDBRANCH  76  77
ENDBRANCH  75  76
ENDBRANCH  74  75
ENDBRANCH  73  74
ENDBRANCH  72  73
ENDBRANCH  70  72
ENDBRANCH  69  70
ENDBRANCH  68  69
ENDBRANCH  67  68
BRANCH  67  87
ATOM     87  O   LIG    1       -1.013  -1.362  -2.413  0.00  0.00    -0.454 OA
BRANCH  87  88
ATOM     88  C   LIG    1       -2.182  -1.885  -2.858  0.00  0.00    +0.308 C 
ATOM     89  O   LIG    1       -3.239  -1.935  -2.228  0.00  0.00    -0.251 OA
BRANCH  88  90
ATOM     90  C   LIG    1       -2.088  -2.418  -4.292  0.00  0.00    +0.120 C 
BRANCH  90  91
ATOM     91  C   LIG    1       -1.525  -1.405  -5.316  0.00  0.00    +0.011 C 
BRANCH  91  92
ATOM     92  C   LIG    1       -2.351  -0.109  -5.455  0.00  0.00    +0.001 C 
BRANCH  92  93
ATOM     93  C   LIG    1       -1.772   0.868  -6.493  0.00  0.00    +0.000 C 
BRANCH  93  94
ATOM     94  C   LIG    1       -2.566   2.184  -6.576  0.00  0.00    +0.000 C 
BRANCH  94  95
ATOM     95  C   LIG    1       -1.984   3.178  -7.597  0.00  0.00    +0.000 C 
BRANCH  95  96
ATOM     96  C   LIG    1       -2.752   4.511  -7.633  0.00  0.00    -0.000 C 
BRANCH  96  97
ATOM     97  C   LIG    1       -2.177   5.513  -8.650  0.00  0.00    -0.000 C 
BRANCH  97  98
ATOM     98  C   LIG    1       -2.936   6.854  -8.659  0.00  0.00    -0.000 C 
BRANCH  98  99
ATOM     99  C   LIG    1       -2.354   7.911  -9.618  0.00  0.00    -0.000 C 
BRANCH  99 100
ATOM    100  C   LIG    1       -2.482   7.553 -11.111  0.00  0.00    -0.000 C 
BRANCH 100 101
ATOM    101  C   LIG    1       -2.005   8.684 -12.040  0.00  0.00    -0.000 C 
BRANCH 101 102
ATOM    102  C   LIG    1       -2.147   8.336 -13.532  0.00  0.00    -0.000 C 
BRANCH 102 103
ATOM    103  C   LIG    1       -1.688   9.475 -14.460  0.00  0.00    -0.003 C 
ATOM    104  C   LIG    1       -1.841   9.133 -15.948  0.00  0.00    +0.004 C 
ENDBRANCH 102 103
ENDBRANCH 101 102
ENDBRANCH 100 101
ENDBRANCH  99 100
ENDBRANCH  98  99
ENDBRANCH  97  98
ENDBRANCH  96  97
ENDBRANCH  95  96
ENDBRANCH  94  95
ENDBRANCH  93  94
ENDBRANCH  92  93
ENDBRANCH  91  92
ENDBRANCH  90  91
ENDBRANCH  88  90
ENDBRANCH  87  88
ENDBRANCH  67  87
ENDBRANCH  66  67
ENDBRANCH  65  66
ENDBRANCH  63  65
ENDBRANCH  61  63
ENDBRANCH  57  61
ENDBRANCH  56  59
ENDBRANCH  55  56
ENDBRANCH   1  55
TORSDOF 63
