REMARK  Name = DB15906
REMARK                            x       y       z     vdW  Elec       q    Type
REMARK                         _______ _______ _______ _____ _____    ______ ____
ROOT
ATOM      1  C   LIG    1        0.125   0.715  -0.229  0.00  0.00    +0.000 C 
ATOM      2  C   LIG    1        0.136  -0.045   0.726  0.00  0.00    +0.000 C 
ENDROOT
TORSDOF 0
