REMARK  Name = DB15685
REMARK                            x       y       z     vdW  Elec       q    Type
REMARK                         _______ _______ _______ _____ _____    ______ ____
ROOT
ATOM      1  C   LIG    1       -1.989   0.991   0.016  0.00  0.00    +0.121 A 
ATOM      2  N   LIG    1       -1.273   1.141   1.167  0.00  0.00    -0.240 NA
ATOM      3  C   LIG    1        0.063   0.904   1.147  0.00  0.00    +0.121 A 
ATOM      4  C   LIG    1        0.756   0.506   0.001  0.00  0.00    +0.003 A 
ATOM      5  C   LIG    1        0.009   0.325  -1.168  0.00  0.00    +0.013 A 
ATOM      6  C   LIG    1       -1.365   0.566  -1.167  0.00  0.00    +0.044 A 
ENDROOT
BRANCH   4   7
ATOM      7  C   LIG    1        2.220   0.262   0.030  0.00  0.00    +0.014 A 
ATOM      8  C   LIG    1        3.118   0.947  -0.831  0.00  0.00    +0.092 A 
ATOM      9  C   LIG    1        3.080   1.964  -1.834  0.00  0.00    +0.097 A 
ATOM     10  C   LIG    1        4.407   2.098  -2.240  0.00  0.00    +0.154 A 
ATOM     11  N   LIG    1        5.247   1.312  -1.609  0.00  0.00    -0.173 NA
ATOM     12  N   LIG    1        4.484   0.613  -0.742  0.00  0.00    -0.234 N 
ATOM     13  C   LIG    1        4.982  -0.316   0.131  0.00  0.00    +0.158 A 
ATOM     14  C   LIG    1        4.106  -0.976   0.997  0.00  0.00    +0.139 A 
ATOM     15  C   LIG    1        2.747  -0.675   0.931  0.00  0.00    +0.058 A 
BRANCH   9  16
ATOM     16  C   LIG    1        1.943   2.721  -2.333  0.00  0.00    +0.103 C 
ATOM     17  N   LIG    1        1.039   3.322  -2.730  0.00  0.00    -0.191 NA
ENDBRANCH   9  16
BRANCH  14  18
ATOM     18  O   LIG    1        4.492  -1.922   1.927  0.00  0.00    -0.488 OA
BRANCH  18  19
ATOM     19  C   LIG    1        5.872  -2.269   2.040  0.00  0.00    +0.263 C 
BRANCH  19  20
ATOM     20  C   LIG    1        6.089  -3.299   3.175  0.00  0.00    +0.094 C 
ATOM     21  C   LIG    1        5.490  -2.820   4.514  0.00  0.00    +0.044 C 
ATOM     22  C   LIG    1        7.587  -3.629   3.332  0.00  0.00    +0.044 C 
BRANCH  20  23
ATOM     23  O   LIG    1        5.439  -4.503   2.812  0.00  0.00    -0.386 OA
ATOM     24  H   LIG    1        5.575  -5.146   3.512  0.00  0.00    +0.210 HD
ENDBRANCH  20  23
ENDBRANCH  19  20
ENDBRANCH  18  19
ENDBRANCH  14  18
ENDBRANCH   4   7
BRANCH   1  28
ATOM     25  N   LIG    1       -5.960   2.738  -0.016  0.00  0.00    -0.289 NA
ATOM     26  C   LIG    1       -5.727   1.526  -0.815  0.00  0.00    +0.076 C 
ATOM     27  C   LIG    1       -4.207   1.329  -1.137  0.00  0.00    +0.125 C 
ATOM     28  N   LIG    1       -3.362   1.237   0.081  0.00  0.00    -0.312 N 
ATOM     29  C   LIG    1       -4.013   1.823   1.283  0.00  0.00    +0.125 C 
ATOM     30  C   LIG    1       -6.159   0.716   0.414  0.00  0.00    +0.041 C 
ATOM     31  C   LIG    1       -5.571   1.928   1.148  0.00  0.00    +0.076 C 
BRANCH  25  32
ATOM     32  C   LIG    1       -5.328   4.024  -0.319  0.00  0.00    +0.121 C 
BRANCH  32  36
ATOM     33  C   LIG    1       -6.726   5.747  -3.987  0.00  0.00    +0.214 A 
ATOM     34  C   LIG    1       -7.655   5.492  -2.975  0.00  0.00    +0.067 A 
ATOM     35  C   LIG    1       -7.212   4.929  -1.777  0.00  0.00    +0.011 A 
ATOM     36  C   LIG    1       -5.855   4.627  -1.613  0.00  0.00    -0.015 A 
ATOM     37  C   LIG    1       -4.986   4.911  -2.671  0.00  0.00    +0.119 A 
ATOM     38  N   LIG    1       -5.399   5.459  -3.842  0.00  0.00    -0.221 NA
BRANCH  33  40
ATOM     39  C   LIG    1       -6.247   6.600  -6.209  0.00  0.00    +0.279 C 
ATOM     40  O   LIG    1       -7.177   6.313  -5.166  0.00  0.00    -0.480 OA
ENDBRANCH  33  40
ENDBRANCH  32  36
ENDBRANCH  25  32
ENDBRANCH   1  28
TORSDOF 10
