REMARK  Name = DB15143
REMARK                            x       y       z     vdW  Elec       q    Type
REMARK                         _______ _______ _______ _____ _____    ______ ____
ROOT
ATOM      1  C   LIG    1        1.989  -1.544   0.017  0.00  0.00    +0.223 A 
ATOM      2  N   LIG    1        1.230  -2.675   0.041  0.00  0.00    -0.221 NA
ATOM      3  C   LIG    1        1.864  -3.870   0.013  0.00  0.00    +0.115 A 
ATOM      4  C   LIG    1        3.249  -4.004  -0.040  0.00  0.00    +0.028 A 
ATOM      5  C   LIG    1        4.050  -2.834  -0.064  0.00  0.00    -0.010 A 
ATOM      6  C   LIG    1        5.460  -2.891  -0.121  0.00  0.00    +0.025 A 
ATOM      7  C   LIG    1        6.238  -1.724  -0.146  0.00  0.00    +0.079 A 
ATOM      8  C   LIG    1        5.609  -0.463  -0.108  0.00  0.00    +0.133 A 
ATOM      9  C   LIG    1        4.207  -0.393  -0.055  0.00  0.00    +0.060 A 
ATOM     10  C   LIG    1        3.410  -1.562  -0.033  0.00  0.00    +0.047 A 
ENDROOT
BRANCH   7  11
ATOM     11  C   LIG    1        7.747  -1.845  -0.229  0.00  0.00    +0.245 C 
ATOM     12  O   LIG    1        8.427  -1.048  -0.874  0.00  0.00    -0.270 OA
ATOM     13  N   LIG    1        8.307  -2.854   0.446  0.00  0.00    -0.325 N 
ATOM     14  H   LIG    1        9.309  -2.977   0.430  0.00  0.00    +0.145 HD
ATOM     15  H   LIG    1        7.737  -3.492   0.982  0.00  0.00    +0.145 HD
ENDBRANCH   7  11
BRANCH   8  16
ATOM     16  O   LIG    1        6.405   0.673  -0.110  0.00  0.00    -0.494 OA
ATOM     17  C   LIG    1        5.809   1.966  -0.058  0.00  0.00    +0.277 C 
ENDBRANCH   8  16
BRANCH   1  18
ATOM     18  O   LIG    1        1.344  -0.318   0.038  0.00  0.00    -0.474 OA
BRANCH  18  19
ATOM     19  C   LIG    1       -0.084  -0.253   0.028  0.00  0.00    +0.253 C 
BRANCH  19  27
ATOM     20  C   LIG    1       -2.049   1.476  -0.199  0.00  0.00    +0.055 C 
ATOM     21  C   LIG    1       -2.200   1.863  -1.672  0.00  0.00    +0.256 C 
ATOM     22  F   LIG    1       -2.534   0.811  -2.424  0.00  0.00    -0.235 F 
ATOM     23  C   LIG    1       -0.812   2.278  -2.155  0.00  0.00    +0.248 C 
ATOM     24  O   LIG    1       -0.542   2.821  -3.224  0.00  0.00    -0.273 OA
ATOM     25  N   LIG    1        0.041   1.905  -1.185  0.00  0.00    -0.306 N 
ATOM     26  H   LIG    1        1.041   2.021  -1.272  0.00  0.00    +0.149 HD
ATOM     27  C   LIG    1       -0.539   1.223  -0.030  0.00  0.00    +0.117 C 
BRANCH  20  29
ATOM     28  C   LIG    1       -4.486   0.743   0.246  0.00  0.00    +0.004 C 
ATOM     29  C   LIG    1       -2.999   0.357   0.301  0.00  0.00    +0.005 C 
ENDBRANCH  20  29
ENDBRANCH  19  27
ENDBRANCH  18  19
ENDBRANCH   1  18
TORSDOF 6
