REMARK  Name = DB15307
REMARK                            x       y       z     vdW  Elec       q    Type
REMARK                         _______ _______ _______ _____ _____    ______ ____
ROOT
ATOM      1  C   LIG    1        1.508  -0.018  -0.051  0.00  0.00    +0.018 A 
ATOM      2  C   LIG    1        2.185  -1.255  -0.090  0.00  0.00    +0.129 A 
ATOM      3  F   LIG    1        1.508  -2.425  -0.075  0.00  0.00    -0.205 F 
ATOM      4  C   LIG    1        3.576  -1.312  -0.143  0.00  0.00    +0.040 A 
ATOM      5  C   LIG    1        4.332  -0.145  -0.161  0.00  0.00    +0.026 A 
ATOM      6  C   LIG    1        3.696   1.102  -0.132  0.00  0.00    +0.034 A 
ATOM      7  C   LIG    1        2.300   1.151  -0.070  0.00  0.00    +0.032 A 
ENDROOT
BRANCH   1   9
ATOM      8  C   LIG    1       -0.537  -0.668   1.310  0.00  0.00    +0.044 C 
ATOM      9  C   LIG    1       -0.052   0.031   0.010  0.00  0.00    +0.084 C 
ATOM     10  N   LIG    1       -0.625   1.403   0.086  0.00  0.00    -0.355 N 
ATOM     11  H   LIG    1       -0.340   1.970   0.872  0.00  0.00    +0.162 HD
ATOM     12  C   LIG    1       -1.291   2.043  -0.869  0.00  0.00    +0.130 C 
ATOM     13  S   LIG    1       -1.989   1.392  -2.305  0.00  0.00    -0.065 S 
ATOM     14  C   LIG    1       -1.454  -0.287  -2.176  0.00  0.00    +0.047 C 
ATOM     15  C   LIG    1       -0.659  -0.739  -1.186  0.00  0.00    +0.012 C 
BRANCH  12  16
ATOM     16  N   LIG    1       -1.548   3.340  -0.758  0.00  0.00    -0.339 N 
ATOM     17  H   LIG    1       -2.068   3.811  -1.484  0.00  0.00    +0.144 HD
ATOM     18  H   LIG    1       -1.213   3.857   0.042  0.00  0.00    +0.144 HD
ENDBRANCH  12  16
ENDBRANCH   1   9
BRANCH   6  19
ATOM     19  N   LIG    1        4.362   2.343  -0.132  0.00  0.00    -0.280 N 
ATOM     20  H   LIG    1        3.776   3.134   0.095  0.00  0.00    +0.155 HD
ATOM     21  C   LIG    1        5.653   2.633  -0.422  0.00  0.00    +0.267 C 
ATOM     22  O   LIG    1        6.483   1.799  -0.791  0.00  0.00    -0.268 OA
BRANCH  21  23
ATOM     23  C   LIG    1        6.055   4.090  -0.287  0.00  0.00    +0.126 A 
ATOM     24  C   LIG    1        7.341   4.510  -0.663  0.00  0.00    +0.034 A 
ATOM     25  C   LIG    1        7.689   5.855  -0.526  0.00  0.00    +0.022 A 
ATOM     26  C   LIG    1        6.754   6.760  -0.018  0.00  0.00    +0.070 A 
ATOM     27  C   LIG    1        5.492   6.279   0.337  0.00  0.00    +0.130 A 
ATOM     28  N   LIG    1        5.139   4.975   0.208  0.00  0.00    -0.249 NA
BRANCH  26  29
ATOM     29  C   LIG    1        7.086   8.168   0.139  0.00  0.00    +0.101 C 
ATOM     30  N   LIG    1        7.350   9.287   0.265  0.00  0.00    -0.191 NA
ENDBRANCH  26  29
ENDBRANCH  21  23
ENDBRANCH   6  19
TORSDOF 5
