REMARK  Name = DB15362
REMARK                            x       y       z     vdW  Elec       q    Type
REMARK                         _______ _______ _______ _____ _____    ______ ____
ROOT
ATOM      1  C   LIG    1       -0.949   1.074  -0.308  0.00  0.00    +0.063 A 
ATOM      2  S   LIG    1       -2.624   0.722  -0.670  0.00  0.00    -0.084 S 
ATOM      3  C   LIG    1       -2.319  -1.000  -0.523  0.00  0.00    +0.027 A 
ATOM      4  C   LIG    1       -3.254  -2.034  -0.686  0.00  0.00    +0.061 A 
ATOM      5  C   LIG    1       -2.818  -3.349  -0.548  0.00  0.00    +0.118 A 
ATOM      6  C   LIG    1       -1.486  -3.633  -0.260  0.00  0.00    +0.046 A 
ATOM      7  C   LIG    1       -0.550  -2.613  -0.096  0.00  0.00    +0.016 A 
ATOM      8  C   LIG    1       -0.951  -1.268  -0.216  0.00  0.00    +0.032 A 
ATOM      9  C   LIG    1       -0.193  -0.061  -0.080  0.00  0.00    +0.151 A 
ENDROOT
BRANCH   1  16
ATOM     10  C   LIG    1       -0.651   3.379   0.782  0.00  0.00    +0.031 A 
ATOM     11  C   LIG    1       -0.174   4.695   0.642  0.00  0.00    +0.048 A 
ATOM     12  C   LIG    1        0.443   5.119  -0.533  0.00  0.00    +0.124 A 
ATOM     13  F   LIG    1        0.894   6.389  -0.639  0.00  0.00    -0.205 F 
ATOM     14  C   LIG    1        0.598   4.235  -1.595  0.00  0.00    +0.039 A 
ATOM     15  C   LIG    1        0.131   2.929  -1.483  0.00  0.00    +0.012 A 
ATOM     16  C   LIG    1       -0.498   2.494  -0.311  0.00  0.00    +0.001 A 
BRANCH  10  18
ATOM     17  C   LIG    1       -1.211   3.899   3.283  0.00  0.00    +0.090 C 
ATOM     18  C   LIG    1       -1.317   2.919   2.098  0.00  0.00    +0.272 C 
ATOM     19  F   LIG    1       -2.606   2.690   1.844  0.00  0.00    -0.201 F 
ATOM     20  F   LIG    1       -0.767   1.764   2.475  0.00  0.00    -0.201 F 
ENDBRANCH  10  18
ENDBRANCH   1  16
BRANCH   5  21
ATOM     21  O   LIG    1       -3.710  -4.378  -0.701  0.00  0.00    -0.507 OA
ATOM     22  H   LIG    1       -4.600  -4.077  -0.896  0.00  0.00    +0.292 HD
ENDBRANCH   5  21
BRANCH   9  23
ATOM     23  O   LIG    1        1.155  -0.030   0.181  0.00  0.00    -0.454 OA
BRANCH  23  24
ATOM     24  C   LIG    1        1.684  -0.541   1.351  0.00  0.00    +0.129 A 
ATOM     25  C   LIG    1        0.914  -0.946   2.451  0.00  0.00    +0.047 A 
ATOM     26  C   LIG    1        1.530  -1.445   3.595  0.00  0.00    +0.011 A 
ATOM     27  C   LIG    1        2.925  -1.540   3.665  0.00  0.00    -0.025 A 
ATOM     28  C   LIG    1        3.689  -1.123   2.572  0.00  0.00    +0.011 A 
ATOM     29  C   LIG    1        3.073  -0.625   1.427  0.00  0.00    +0.047 A 
BRANCH  27  30
ATOM     30  C   LIG    1        3.629  -2.069   4.854  0.00  0.00    +0.015 C 
ATOM     31  C   LIG    1        3.066  -2.651   5.939  0.00  0.00    +0.092 C 
BRANCH  31  32
ATOM     32  C   LIG    1        3.845  -3.186   7.169  0.00  0.00    +0.330 C 
ATOM     33  O   LIG    1        3.123  -3.394   8.169  0.00  0.00    -0.246 OA
BRANCH  32  34
ATOM     34  O   LIG    1        5.076  -3.371   7.024  0.00  0.00    -0.478 OA
ATOM     35  H   LIG    1        5.589  -3.694   7.738  0.00  0.00    +0.295 HD
ENDBRANCH  32  34
ENDBRANCH  31  32
ENDBRANCH  27  30
ENDBRANCH  23  24
ENDBRANCH   9  23
TORSDOF 8
