REMARK  Name = DB15222
REMARK                            x       y       z     vdW  Elec       q    Type
REMARK                         _______ _______ _______ _____ _____    ______ ____
ROOT
ATOM      1  C   LIG    1        0.810  -1.453  -1.950  0.00  0.00    +0.190 C 
ATOM      2  O   LIG    1        1.503  -0.403  -2.612  0.00  0.00    -0.342 OA
ATOM      3  C   LIG    1        2.707  -0.877  -3.226  0.00  0.00    +0.229 C 
ATOM      4  C   LIG    1        2.978  -2.282  -2.568  0.00  0.00    +0.150 C 
ATOM      5  C   LIG    1        4.434  -2.544  -2.110  0.00  0.00    +0.050 C 
ATOM      6  C   LIG    1        1.971  -2.285  -1.413  0.00  0.00    +0.243 C 
ENDROOT
BRANCH   3   7
ATOM      7  C   LIG    1        3.793   0.188  -3.005  0.00  0.00    +0.092 A 
ATOM      8  N   LIG    1        4.016   0.823  -1.787  0.00  0.00    -0.228 N 
ATOM      9  C   LIG    1        5.069   1.758  -1.949  0.00  0.00    +0.105 A 
ATOM     10  C   LIG    1        5.505   1.684  -3.293  0.00  0.00    +0.033 A 
ATOM     11  C   LIG    1        5.396   2.490  -0.790  0.00  0.00    +0.144 A 
ATOM     12  N   LIG    1        4.744   2.305   0.384  0.00  0.00    -0.217 NA
ATOM     13  C   LIG    1        3.760   1.378   0.398  0.00  0.00    +0.245 A 
ATOM     14  N   LIG    1        3.343   0.607  -0.634  0.00  0.00    -0.154 NA
ATOM     15  C   LIG    1        4.713   0.729  -3.906  0.00  0.00    +0.029 A 
BRANCH  11  16
ATOM     16  N   LIG    1        6.412   3.441  -0.809  0.00  0.00    -0.341 N 
ATOM     17  H   LIG    1        6.629   3.946   0.039  0.00  0.00    +0.144 HD
ATOM     18  H   LIG    1        6.927   3.606  -1.662  0.00  0.00    +0.144 HD
ENDBRANCH  11  16
ENDBRANCH   3   7
BRANCH   4  19
ATOM     19  O   LIG    1        2.731  -3.360  -3.467  0.00  0.00    -0.381 OA
ATOM     20  H   LIG    1        3.572  -3.662  -3.820  0.00  0.00    +0.210 HD
ENDBRANCH   4  19
BRANCH   3  21
ATOM     21  C   LIG    1        2.403  -0.973  -4.672  0.00  0.00    +0.107 C 
ATOM     22  N   LIG    1        2.166  -1.046  -5.803  0.00  0.00    -0.193 NA
ENDBRANCH   3  21
BRANCH   1  23
ATOM     23  C   LIG    1       -0.066  -0.840  -0.848  0.00  0.00    +0.207 C 
BRANCH  23  24
ATOM     24  O   LIG    1       -1.102  -0.035  -1.389  0.00  0.00    -0.284 OA
BRANCH  24  25
ATOM     25  P   LIG    1       -1.129   1.595  -1.248  0.00  0.00    +0.462 P 
ATOM     26  O   LIG    1       -2.226   2.230  -2.029  0.00  0.00    -0.228 OA
BRANCH  25  27
ATOM     27  N   LIG    1       -1.162   1.890   0.438  0.00  0.00    -0.199 NA
ATOM     28  H   LIG    1       -2.022   2.254   0.849  0.00  0.00    +0.135 HD
BRANCH  27  29
ATOM     29  C   LIG    1        0.013   1.940   1.317  0.00  0.00    +0.171 C 
ATOM     30  C   LIG    1        0.146   3.301   2.028  0.00  0.00    +0.036 C 
BRANCH  29  31
ATOM     31  C   LIG    1       -0.032   0.836   2.353  0.00  0.00    +0.325 C 
ATOM     32  O   LIG    1       -0.969   0.680   3.140  0.00  0.00    -0.249 OA
BRANCH  31  33
ATOM     33  O   LIG    1        1.089   0.077   2.307  0.00  0.00    -0.461 OA
BRANCH  33  34
ATOM     34  C   LIG    1        1.298  -1.040   3.169  0.00  0.00    +0.170 C 
ATOM     35  C   LIG    1        0.435  -2.248   2.753  0.00  0.00    +0.052 C 
ATOM     36  C   LIG    1        2.797  -1.371   3.120  0.00  0.00    +0.052 C 
ENDBRANCH  33  34
ENDBRANCH  31  33
ENDBRANCH  29  31
ENDBRANCH  27  29
ENDBRANCH  25  27
BRANCH  25  37
ATOM     37  O   LIG    1        0.370   2.038  -1.724  0.00  0.00    -0.413 OA
BRANCH  37  38
ATOM     38  C   LIG    1        0.808   3.311  -2.003  0.00  0.00    +0.131 A 
ATOM     39  C   LIG    1        1.920   3.442  -2.835  0.00  0.00    +0.046 A 
ATOM     40  C   LIG    1        2.429   4.701  -3.137  0.00  0.00    +0.004 A 
ATOM     41  C   LIG    1        1.819   5.835  -2.607  0.00  0.00    +0.000 A 
ATOM     42  C   LIG    1        0.702   5.718  -1.782  0.00  0.00    +0.004 A 
ATOM     43  C   LIG    1        0.195   4.457  -1.481  0.00  0.00    +0.046 A 
ENDBRANCH  37  38
ENDBRANCH  25  37
ENDBRANCH  24  25
ENDBRANCH  23  24
ENDBRANCH   1  23
BRANCH   6  44
ATOM     44  O   LIG    1        1.518  -3.578  -1.002  0.00  0.00    -0.455 OA
BRANCH  44  45
ATOM     45  C   LIG    1        2.155  -4.288  -0.041  0.00  0.00    +0.310 C 
ATOM     46  O   LIG    1        3.142  -3.914   0.597  0.00  0.00    -0.251 OA
BRANCH  45  47
ATOM     47  C   LIG    1        1.483  -5.650   0.207  0.00  0.00    +0.092 C 
ATOM     48  C   LIG    1        1.893  -6.661  -0.881  0.00  0.00    +0.019 C 
ATOM     49  C   LIG    1        1.763  -6.205   1.620  0.00  0.00    +0.019 C 
ENDBRANCH  45  47
ENDBRANCH  44  45
ENDBRANCH   6  44
TORSDOF 17
