REMARK  Name = DB15289
REMARK                            x       y       z     vdW  Elec       q    Type
REMARK                         _______ _______ _______ _____ _____    ______ ____
ROOT
ATOM      1  C   LIG    1        1.451   0.106  -0.169  0.00  0.00    +0.018 C 
ATOM      2  C   LIG    1        2.027   0.348   1.249  0.00  0.00    +0.035 C 
ATOM      3  C   LIG    1        3.531   0.617   1.196  0.00  0.00    -0.025 C 
ATOM      4  C   LIG    1        4.244   0.885   0.071  0.00  0.00    -0.048 C 
ATOM      5  C   LIG    1        3.564   0.915  -1.303  0.00  0.00    +0.033 C 
ATOM      6  C   LIG    1        2.041   1.123  -1.173  0.00  0.00    +0.012 C 
ENDROOT
BRANCH   1   8
ATOM      7  C   LIG    1       -0.670  -1.210   0.488  0.00  0.00    +0.039 C 
ATOM      8  C   LIG    1       -0.083   0.033  -0.166  0.00  0.00    -0.076 C 
ATOM      9  C   LIG    1       -0.887   0.974  -0.699  0.00  0.00    +0.007 C 
ENDBRANCH   1   8
BRANCH   4  10
ATOM     10  C   LIG    1        5.761   1.088   0.042  0.00  0.00    +0.186 C 
BRANCH  10  11
ATOM     11  O   LIG    1        6.356   1.005   1.324  0.00  0.00    -0.391 OA
ATOM     12  H   LIG    1        7.301   1.148   1.232  0.00  0.00    +0.210 HD
ENDBRANCH  10  11
ENDBRANCH   4  10
TORSDOF 3
