REMARK  Name = DB15916
REMARK                            x       y       z     vdW  Elec       q    Type
REMARK                         _______ _______ _______ _____ _____    ______ ____
ROOT
ATOM      1  C   LIG    1        0.024  -0.115   0.000  0.00  0.00    -0.025 A 
ATOM      2  C   LIG    1       -0.703  -1.312   0.000  0.00  0.00    +0.011 A 
ATOM      3  C   LIG    1       -2.095  -1.294   0.000  0.00  0.00    +0.046 A 
ATOM      4  C   LIG    1       -2.787  -0.073   0.000  0.00  0.00    +0.120 A 
ATOM      5  C   LIG    1       -2.061   1.118   0.000  0.00  0.00    +0.046 A 
ATOM      6  C   LIG    1       -0.669   1.099   0.000  0.00  0.00    +0.011 A 
ENDROOT
BRANCH   1   7
ATOM      7  C   LIG    1        1.502  -0.082   0.000  0.00  0.00    +0.003 C 
ATOM      8  C   LIG    1        2.338  -1.138   0.000  0.00  0.00    -0.030 C 
ATOM      9  C   LIG    1        3.847  -1.019   0.000  0.00  0.00    +0.035 C 
ENDBRANCH   1   7
BRANCH   4  10
ATOM     10  O   LIG    1       -4.164   0.043   0.000  0.00  0.00    -0.495 OA
ATOM     11  C   LIG    1       -4.960  -1.137   0.000  0.00  0.00    +0.277 C 
ENDBRANCH   4  10
TORSDOF 2
