REMARK  Name = DB15371
REMARK                            x       y       z     vdW  Elec       q    Type
REMARK                         _______ _______ _______ _____ _____    ______ ____
ROOT
ATOM      1  C   LIG    1       -2.137   2.024  -7.836  0.00  0.00    +0.122 A 
ATOM      2  C   LIG    1       -3.334   1.985  -8.575  0.00  0.00    +0.046 A 
ATOM      3  C   LIG    1       -4.571   1.946  -7.930  0.00  0.00    +0.019 A 
ATOM      4  C   LIG    1       -4.618   1.946  -6.534  0.00  0.00    +0.065 A 
ATOM      5  C   LIG    1       -5.944   1.900  -5.795  0.00  0.00    +0.264 A 
ATOM      6  N   LIG    1       -5.801   1.895  -4.417  0.00  0.00    -0.262 N 
ATOM      7  C   LIG    1       -4.577   1.951  -3.762  0.00  0.00    +0.302 A 
ATOM      8  N   LIG    1       -3.452   1.996  -4.391  0.00  0.00    -0.196 NA
ATOM      9  O   LIG    1       -4.604   1.976  -2.376  0.00  0.00    -0.459 OA
ATOM     10  C   LIG    1       -3.375   2.098  -1.636  0.00  0.00    +0.196 C 
ATOM     11  C   LIG    1       -2.552   0.809  -1.609  0.00  0.00    +0.078 C 
ATOM     12  C   LIG    1       -1.836   0.816  -0.248  0.00  0.00    +0.166 C 
ATOM     13  N   LIG    1       -2.727   1.622   0.611  0.00  0.00    -0.285 N 
ATOM     14  C   LIG    1       -2.720   1.537   1.969  0.00  0.00    +0.237 C 
ATOM     15  O   LIG    1       -1.929   0.814   2.582  0.00  0.00    -0.274 OA
ATOM     16  C   LIG    1       -3.723   2.389   2.797  0.00  0.00    +0.165 C 
ATOM     17  N   LIG    1       -4.999   1.659   2.842  0.00  0.00    -0.270 N 
ATOM     18  H   LIG    1       -4.992   0.701   3.161  0.00  0.00    +0.153 HD
ATOM     19  C   LIG    1       -6.148   2.166   2.249  0.00  0.00    +0.401 C 
ATOM     20  O   LIG    1       -6.287   3.287   1.753  0.00  0.00    -0.226 OA
ATOM     21  O   LIG    1       -7.095   1.210   2.263  0.00  0.00    -0.447 OA
ATOM     22  C   LIG    1       -8.338   1.375   1.579  0.00  0.00    +0.181 C 
ATOM     23  C   LIG    1       -9.440   1.860   2.541  0.00  0.00    +0.045 C 
ATOM     24  C   LIG    1      -10.325   0.640   2.798  0.00  0.00    +0.004 C 
ATOM     25  C   LIG    1      -10.231  -0.176   1.510  0.00  0.00    +0.007 C 
ATOM     26  C   LIG    1       -8.775  -0.012   1.046  0.00  0.00    +0.030 C 
ATOM     27  C   LIG    1       -8.601  -0.161  -0.482  0.00  0.00    +0.007 C 
ATOM     28  C   LIG    1       -7.136  -0.064  -0.967  0.00  0.00    +0.000 C 
ATOM     29  C   LIG    1       -6.933  -0.475  -2.441  0.00  0.00    +0.002 C 
ATOM     30  C   LIG    1       -7.651   0.413  -3.480  0.00  0.00    +0.022 C 
ATOM     31  C   LIG    1       -3.728   2.358  -0.172  0.00  0.00    +0.153 C 
ATOM     32  C   LIG    1       -7.072   1.838  -3.652  0.00  0.00    +0.130 C 
ATOM     33  O   LIG    1       -7.030   1.865  -6.381  0.00  0.00    -0.267 OA
ATOM     34  C   LIG    1       -3.435   1.986  -5.789  0.00  0.00    +0.085 A 
ATOM     35  C   LIG    1       -2.203   2.024  -6.440  0.00  0.00    +0.074 A 
ENDROOT
BRANCH  16  36
ATOM     36  C   LIG    1       -3.209   2.739   4.231  0.00  0.00    +0.018 C 
ATOM     37  C   LIG    1       -1.859   3.522   4.203  0.00  0.00    +0.006 C 
ATOM     38  C   LIG    1       -2.064   4.734   5.124  0.00  0.00    +0.000 C 
ATOM     39  C   LIG    1       -3.544   5.056   5.012  0.00  0.00    +0.000 C 
ATOM     40  C   LIG    1       -4.191   3.676   4.989  0.00  0.00    +0.006 C 
ENDBRANCH  16  36
BRANCH  12  41
ATOM     41  C   LIG    1       -0.418   1.431  -0.311  0.00  0.00    +0.234 C 
ATOM     42  N   LIG    1        0.603   0.596  -0.049  0.00  0.00    -0.299 N 
ATOM     43  H   LIG    1        0.400  -0.387   0.058  0.00  0.00    +0.150 HD
ATOM     44  O   LIG    1       -0.263   2.608  -0.645  0.00  0.00    -0.274 OA
BRANCH  42  45
ATOM     45  C   LIG    1        2.024   0.953  -0.083  0.00  0.00    +0.119 C 
ATOM     46  C   LIG    1        2.505   2.136   0.762  0.00  0.00    +0.046 C 
ATOM     47  C   LIG    1        2.840   0.730   1.189  0.00  0.00    +0.046 C 
BRANCH  45  48
ATOM     48  C   LIG    1        2.764   0.570  -1.385  0.00  0.00    +0.256 C 
ATOM     49  N   LIG    1        3.152  -0.679  -1.499  0.00  0.00    -0.188 N 
ATOM     50  H   LIG    1        2.935  -1.325  -0.789  0.00  0.00    +0.176 HD
ATOM     51  O   LIG    1        2.943   1.471  -2.209  0.00  0.00    -0.272 OA
BRANCH  49  52
ATOM     52  S   LIG    1        3.961  -1.149  -2.761  0.00  0.00    +0.051 S 
ATOM     53  O   LIG    1        5.270  -0.493  -2.878  0.00  0.00    -0.155 OA
ATOM     54  O   LIG    1        3.138  -1.192  -3.976  0.00  0.00    -0.155 OA
BRANCH  52  55
ATOM     55  C   LIG    1        4.377  -2.965  -2.341  0.00  0.00    +0.104 C 
ATOM     56  C   LIG    1        4.614  -3.851  -3.543  0.00  0.00    +0.033 C 
ATOM     57  C   LIG    1        3.328  -3.974  -2.750  0.00  0.00    +0.033 C 
ATOM     58  C   LIG    1        5.194  -3.184  -1.057  0.00  0.00    +0.037 C 
ENDBRANCH  52  55
ENDBRANCH  49  52
ENDBRANCH  45  48
BRANCH  46  59
ATOM     59  C   LIG    1        3.658   3.046   0.364  0.00  0.00    -0.028 C 
ATOM     60  C   LIG    1        3.686   4.369   0.585  0.00  0.00    +0.004 C 
ENDBRANCH  46  59
ENDBRANCH  42  45
ENDBRANCH  12  41
BRANCH   1  62
ATOM     61  C   LIG    1       -0.745   2.066  -9.813  0.00  0.00    +0.277 C 
ATOM     62  O   LIG    1       -0.875   2.063  -8.396  0.00  0.00    -0.495 OA
ENDBRANCH   1  62
TORSDOF 8
