REMARK  Name = DB15170
REMARK                            x       y       z     vdW  Elec       q    Type
REMARK                         _______ _______ _______ _____ _____    ______ ____
ROOT
ATOM      1  C   LIG    1       -1.915  -0.952  -0.192  0.00  0.00    +0.129 A 
ATOM      2  C   LIG    1       -0.546  -1.146   0.097  0.00  0.00    +0.061 A 
ATOM      3  C   LIG    1        0.219   0.028   0.291  0.00  0.00    +0.132 A 
ATOM      4  N   LIG    1       -0.340   1.269   0.208  0.00  0.00    -0.220 NA
ATOM      5  C   LIG    1       -1.661   1.333  -0.075  0.00  0.00    +0.225 A 
ATOM      6  N   LIG    1       -2.480   0.277  -0.282  0.00  0.00    -0.220 NA
ENDROOT
BRANCH   2   7
ATOM      7  C   LIG    1        0.052  -2.513   0.192  0.00  0.00    -0.011 A 
ATOM      8  C   LIG    1        0.061  -3.360  -0.921  0.00  0.00    +0.012 A 
ATOM      9  C   LIG    1        0.603  -4.638  -0.831  0.00  0.00    +0.047 A 
ATOM     10  C   LIG    1        1.136  -5.085   0.382  0.00  0.00    +0.128 A 
ATOM     11  C   LIG    1        1.151  -4.239   1.489  0.00  0.00    +0.047 A 
ATOM     12  C   LIG    1        0.607  -2.961   1.395  0.00  0.00    +0.012 A 
BRANCH  10  13
ATOM     13  O   LIG    1        1.683  -6.343   0.503  0.00  0.00    -0.456 OA
BRANCH  13  14
ATOM     14  C   LIG    1        0.955  -7.469   0.173  0.00  0.00    +0.128 A 
ATOM     15  C   LIG    1       -0.443  -7.531   0.281  0.00  0.00    +0.046 A 
ATOM     16  C   LIG    1       -1.118  -8.704  -0.046  0.00  0.00    +0.004 A 
ATOM     17  C   LIG    1       -0.398  -9.818  -0.472  0.00  0.00    +0.000 A 
ATOM     18  C   LIG    1        0.990  -9.770  -0.570  0.00  0.00    +0.004 A 
ATOM     19  C   LIG    1        1.665  -8.597  -0.242  0.00  0.00    +0.046 A 
ENDBRANCH  13  14
ENDBRANCH  10  13
ENDBRANCH   2   7
BRANCH   1  20
ATOM     20  N   LIG    1       -2.787  -2.026  -0.385  0.00  0.00    -0.343 N 
ATOM     21  H   LIG    1       -3.761  -1.842  -0.577  0.00  0.00    +0.144 HD
ATOM     22  H   LIG    1       -2.434  -2.970  -0.319  0.00  0.00    +0.144 HD
ENDBRANCH   1  20
BRANCH   3  23
ATOM     23  N   LIG    1        1.600  -0.070   0.554  0.00  0.00    -0.328 N 
ATOM     24  H   LIG    1        2.025  -0.982   0.461  0.00  0.00    +0.147 HD
BRANCH  23  25
ATOM     25  C   LIG    1        2.491   1.089   0.565  0.00  0.00    +0.106 C 
BRANCH  25  26
ATOM     26  C   LIG    1        3.094   1.416  -0.818  0.00  0.00    +0.009 C 
ATOM     27  C   LIG    1        3.911   2.730  -0.796  0.00  0.00    +0.024 C 
ATOM     28  C   LIG    1        4.487   3.054  -2.193  0.00  0.00    +0.108 C 
ATOM     29  N   LIG    1        5.332   1.904  -2.579  0.00  0.00    -0.298 N 
ATOM     30  C   LIG    1        6.697   1.873  -2.529  0.00  0.00    +0.239 C 
ATOM     31  O   LIG    1        7.334   0.858  -2.827  0.00  0.00    -0.271 OA
ATOM     32  C   LIG    1        4.567   0.656  -2.777  0.00  0.00    +0.108 C 
ATOM     33  C   LIG    1        3.973   0.278  -1.398  0.00  0.00    +0.024 C 
BRANCH  30  34
ATOM     34  C   LIG    1        7.390   3.079  -2.110  0.00  0.00    +0.060 C 
ATOM     35  C   LIG    1        8.687   3.304  -2.392  0.00  0.00    +0.013 C 
ENDBRANCH  30  34
ENDBRANCH  25  26
ENDBRANCH  23  25
ENDBRANCH   3  23
TORSDOF 8
