REMARK  Name = DB15013
REMARK                            x       y       z     vdW  Elec       q    Type
REMARK                         _______ _______ _______ _____ _____    ______ ____
ROOT
ATOM      1  C   LIG    1        2.136   1.096   0.570  0.00  0.00    +0.124 A 
ATOM      2  N   LIG    1        3.511   1.005   0.580  0.00  0.00    -0.200 N 
ATOM      3  N   LIG    1        4.267   0.023   0.026  0.00  0.00    -0.163 NA
ATOM      4  C   LIG    1        5.531   0.337   0.267  0.00  0.00    +0.095 A 
ATOM      5  C   LIG    1        5.638   1.532   0.994  0.00  0.00    +0.078 A 
ATOM      6  C   LIG    1        4.313   1.974   1.199  0.00  0.00    +0.158 A 
ATOM      7  N   LIG    1        3.781   3.039   1.813  0.00  0.00    -0.236 NA
ATOM      8  C   LIG    1        2.425   3.140   1.806  0.00  0.00    +0.116 A 
ATOM      9  C   LIG    1        1.575   2.211   1.207  0.00  0.00    +0.063 A 
ENDROOT
BRANCH   4  10
ATOM     10  C   LIG    1        6.655  -0.534  -0.220  0.00  0.00    +0.003 A 
ATOM     11  C   LIG    1        7.986  -0.124  -0.057  0.00  0.00    +0.025 A 
ATOM     12  C   LIG    1        9.039  -0.919  -0.515  0.00  0.00    +0.017 A 
ATOM     13  C   LIG    1        8.777  -2.138  -1.138  0.00  0.00    +0.015 A 
ATOM     14  C   LIG    1        7.460  -2.561  -1.303  0.00  0.00    +0.002 A 
ATOM     15  C   LIG    1        6.407  -1.766  -0.848  0.00  0.00    +0.010 A 
BRANCH  12  16
ATOM     16  S   LIG    1       10.706  -0.378  -0.310  0.00  0.00    -0.016 S 
BRANCH  16  17
ATOM     17  C   LIG    1       10.953   0.898  -1.575  0.00  0.00    +0.448 C 
ATOM     18  F   LIG    1       10.129   1.926  -1.374  0.00  0.00    -0.160 F 
ATOM     19  F   LIG    1       10.723   0.404  -2.791  0.00  0.00    -0.160 F 
ATOM     20  F   LIG    1       12.205   1.351  -1.536  0.00  0.00    -0.160 F 
ENDBRANCH  16  17
ENDBRANCH  12  16
ENDBRANCH   4  10
BRANCH   1  21
ATOM     21  N   LIG    1        1.371   0.102  -0.068  0.00  0.00    -0.324 N 
ATOM     22  H   LIG    1        1.851  -0.665  -0.517  0.00  0.00    +0.148 HD
BRANCH  21  26
ATOM     23  C   LIG    1       -2.134  -0.828   0.910  0.00  0.00    +0.050 C 
ATOM     24  C   LIG    1       -2.140  -1.089  -0.620  0.00  0.00    +0.150 C 
ATOM     25  C   LIG    1       -0.674  -0.919  -1.066  0.00  0.00    +0.163 C 
ATOM     26  C   LIG    1       -0.090   0.109  -0.092  0.00  0.00    +0.103 C 
ATOM     27  C   LIG    1       -0.729  -0.289   1.250  0.00  0.00    +0.033 C 
BRANCH  24  28
ATOM     28  O   LIG    1       -3.051  -0.233  -1.289  0.00  0.00    -0.389 OA
ATOM     29  H   LIG    1       -2.894   0.669  -1.000  0.00  0.00    +0.210 HD
ENDBRANCH  24  28
BRANCH  25  30
ATOM     30  O   LIG    1       -0.493  -0.637  -2.443  0.00  0.00    -0.387 OA
ATOM     31  H   LIG    1       -1.270  -0.171  -2.761  0.00  0.00    +0.210 HD
ENDBRANCH  25  30
BRANCH  23  32
ATOM     32  C   LIG    1       -2.558  -2.050   1.746  0.00  0.00    +0.201 C 
BRANCH  32  33
ATOM     33  O   LIG    1       -3.901  -2.393   1.435  0.00  0.00    -0.225 OA
BRANCH  33  34
ATOM     34  S   LIG    1       -4.406  -3.948   1.766  0.00  0.00    +0.148 S 
ATOM     35  O   LIG    1       -3.886  -4.333   3.083  0.00  0.00    -0.130 OA
ATOM     36  O   LIG    1       -5.837  -4.026   1.453  0.00  0.00    -0.130 OA
BRANCH  34  37
ATOM     37  N   LIG    1       -3.536  -4.859   0.545  0.00  0.00    -0.183 NA
ATOM     38  H   LIG    1       -2.748  -5.430   0.863  0.00  0.00    +0.146 HD
ATOM     39  H   LIG    1       -4.081  -5.220  -0.242  0.00  0.00    +0.146 HD
ENDBRANCH  34  37
ENDBRANCH  33  34
ENDBRANCH  32  33
ENDBRANCH  23  32
ENDBRANCH  21  26
ENDBRANCH   1  21
TORSDOF 11
