REMARK  Name = DB15446
REMARK                            x       y       z     vdW  Elec       q    Type
REMARK                         _______ _______ _______ _____ _____    ______ ____
ROOT
ATOM      1  C   LIG    1        1.507   0.080   0.068  0.00  0.00    -0.015 A 
ATOM      2  C   LIG    1        2.262  -0.928   0.684  0.00  0.00    +0.048 A 
ATOM      3  C   LIG    1        3.656  -0.883   0.701  0.00  0.00    +0.145 A 
ATOM      4  F   LIG    1        4.335  -1.884   1.312  0.00  0.00    -0.204 F 
ATOM      5  C   LIG    1        4.338   0.181   0.098  0.00  0.00    +0.069 A 
ATOM      6  C   LIG    1        3.592   1.194  -0.525  0.00  0.00    +0.027 A 
ATOM      7  C   LIG    1        2.199   1.139  -0.536  0.00  0.00    +0.010 A 
ENDROOT
BRANCH   1  12
ATOM      8  C   LIG    1       -2.072  -1.265  -0.023  0.00  0.00    +0.121 A 
ATOM      9  C   LIG    1       -2.798  -0.074   0.018  0.00  0.00    +0.045 A 
ATOM     10  C   LIG    1       -2.145   1.154   0.075  0.00  0.00    +0.004 A 
ATOM     11  C   LIG    1       -0.752   1.201   0.090  0.00  0.00    +0.009 A 
ATOM     12  C   LIG    1        0.012   0.026   0.051  0.00  0.00    -0.014 A 
ATOM     13  C   LIG    1       -0.668  -1.201  -0.005  0.00  0.00    +0.054 A 
BRANCH   8  15
ATOM     14  C   LIG    1       -2.117  -3.682  -0.121  0.00  0.00    +0.277 C 
ATOM     15  O   LIG    1       -2.804  -2.436  -0.081  0.00  0.00    -0.495 OA
ENDBRANCH   8  15
ENDBRANCH   1  12
BRANCH   5  16
ATOM     16  N   LIG    1        5.746   0.150   0.160  0.00  0.00    -0.279 N 
ATOM     17  H   LIG    1        6.126  -0.714   0.519  0.00  0.00    +0.155 HD
ATOM     18  C   LIG    1        6.649   1.112  -0.133  0.00  0.00    +0.245 C 
ATOM     19  O   LIG    1        6.370   2.248  -0.520  0.00  0.00    -0.270 OA
BRANCH  18  20
ATOM     20  C   LIG    1        8.021   0.666   0.045  0.00  0.00    +0.025 C 
ATOM     21  C   LIG    1        8.515  -0.719  -0.355  0.00  0.00    +0.041 C 
ATOM     22  C   LIG    1        9.916  -0.776   0.241  0.00  0.00    +0.010 C 
ATOM     23  C   LIG    1       10.360   0.662   0.467  0.00  0.00    +0.043 C 
ATOM     24  C   LIG    1        9.046   1.420   0.540  0.00  0.00    +0.044 C 
BRANCH  24  25
ATOM     25  C   LIG    1        8.948   2.873   1.096  0.00  0.00    +0.333 C 
ATOM     26  O   LIG    1        9.749   3.681   0.574  0.00  0.00    -0.245 OA
BRANCH  25  27
ATOM     27  O   LIG    1        8.147   3.034   2.046  0.00  0.00    -0.477 OA
ATOM     28  H   LIG    1        8.039   3.882   2.429  0.00  0.00    +0.295 HD
ENDBRANCH  25  27
ENDBRANCH  24  25
ENDBRANCH  18  20
ENDBRANCH   5  16
TORSDOF 6
