REMARK  Name = DB15440
REMARK                            x       y       z     vdW  Elec       q    Type
REMARK                         _______ _______ _______ _____ _____    ______ ____
ROOT
ATOM      1  N   LIG    1        2.121  -0.647  -0.959  0.00  0.00    +0.391 N 
ATOM      2  H   LIG    1        1.874   0.018  -1.678  0.00  0.00    -0.084 HD
ATOM      3  H   LIG    1        1.782  -1.557  -1.236  0.00  0.00    -0.084 HD
ENDROOT
BRANCH   1   4
ATOM      4  C   LIG    1        1.430  -0.266   0.363  0.00  0.00    -0.044 C 
BRANCH   4   8
ATOM      5  C   LIG    1       -2.831  -0.211   0.024  0.00  0.00    +0.042 A 
ATOM      6  C   LIG    1       -2.222  -1.362   0.533  0.00  0.00    +0.023 A 
ATOM      7  C   LIG    1       -0.830  -1.388   0.645  0.00  0.00    +0.005 A 
ATOM      8  C   LIG    1       -0.083  -0.274   0.246  0.00  0.00    -0.046 A 
ATOM      9  C   LIG    1       -0.771   0.842  -0.243  0.00  0.00    +0.112 A 
ATOM     10  N   LIG    1       -2.122   0.884  -0.363  0.00  0.00    -0.260 NA
BRANCH   5  11
ATOM     11  C   LIG    1       -4.342  -0.123  -0.137  0.00  0.00    +0.064 C 
BRANCH  11  12
ATOM     12  C   LIG    1       -4.792  -0.200  -1.615  0.00  0.00    +0.104 C 
BRANCH  12  15
ATOM     13  N   LIG    1       -6.765  -0.869  -2.891  0.00  0.00    -0.197 N 
ATOM     14  H   LIG    1       -6.229  -1.326  -3.615  0.00  0.00    +0.182 HD
ATOM     15  C   LIG    1       -6.317  -0.215  -1.805  0.00  0.00    +0.236 C 
ATOM     16  O   LIG    1       -7.050   0.361  -0.997  0.00  0.00    -0.274 OA
BRANCH  13  17
ATOM     17  O   LIG    1       -8.143  -0.887  -3.134  0.00  0.00    -0.295 OA
ATOM     18  H   LIG    1       -8.242  -0.298  -3.885  0.00  0.00    +0.241 HD
ENDBRANCH  13  17
ENDBRANCH  12  15
ENDBRANCH  11  12
ENDBRANCH   5  11
ENDBRANCH   4   8
ENDBRANCH   1   4
BRANCH   1  19
ATOM     19  C   LIG    1        3.633  -0.749  -0.943  0.00  0.00    +0.043 C 
BRANCH  19  20
ATOM     20  C   LIG    1        4.210  -1.484  -2.192  0.00  0.00    -0.015 C 
ATOM     21  C   LIG    1        3.943  -0.798  -3.556  0.00  0.00    +0.002 C 
ATOM     22  C   LIG    1        4.255  -1.793  -4.695  0.00  0.00    +0.000 C 
ATOM     23  C   LIG    1        5.721  -2.295  -4.608  0.00  0.00    +0.000 C 
ATOM     24  C   LIG    1        6.128  -2.777  -3.190  0.00  0.00    +0.000 C 
ATOM     25  C   LIG    1        5.733  -1.737  -2.119  0.00  0.00    +0.002 C 
ENDBRANCH  19  20
BRANCH  19  26
ATOM     26  C   LIG    1        4.202   0.664  -0.768  0.00  0.00    +0.293 C 
ATOM     27  O   LIG    1        5.228   0.859  -0.113  0.00  0.00    -0.253 OA
BRANCH  26  28
ATOM     28  O   LIG    1        3.516   1.640  -1.433  0.00  0.00    -0.462 OA
BRANCH  28  29
ATOM     29  C   LIG    1        3.937   3.004  -1.415  0.00  0.00    +0.176 C 
ATOM     30  C   LIG    1        5.181   3.221  -2.313  0.00  0.00    +0.044 C 
ATOM     31  C   LIG    1        4.806   4.313  -3.318  0.00  0.00    +0.004 C 
ATOM     32  C   LIG    1        3.293   4.182  -3.464  0.00  0.00    +0.004 C 
ATOM     33  C   LIG    1        2.818   3.856  -2.047  0.00  0.00    +0.044 C 
ENDBRANCH  28  29
ENDBRANCH  26  28
ENDBRANCH  19  26
ENDBRANCH   1  19
TORSDOF 11
