REMARK  Name = DB15499
REMARK                            x       y       z     vdW  Elec       q    Type
REMARK                         _______ _______ _______ _____ _____    ______ ____
ROOT
ATOM      1  N   LIG    1        1.363   0.154   0.830  0.00  0.00    -0.284 N 
ATOM      2  H   LIG    1        1.911  -0.616   0.476  0.00  0.00    +0.155 HD
ENDROOT
BRANCH   1   6
ATOM      3  C   LIG    1       -2.783  -0.555   0.517  0.00  0.00    +0.030 A 
ATOM      4  C   LIG    1       -2.294   0.757   0.476  0.00  0.00    +0.025 A 
ATOM      5  C   LIG    1       -0.930   1.015   0.582  0.00  0.00    +0.025 A 
ATOM      6  C   LIG    1       -0.026  -0.040   0.740  0.00  0.00    +0.034 A 
ATOM      7  C   LIG    1       -0.502  -1.351   0.769  0.00  0.00    +0.025 A 
ATOM      8  C   LIG    1       -1.867  -1.606   0.664  0.00  0.00    +0.025 A 
BRANCH   3  12
ATOM      9  N   LIG    1       -6.934  -1.456  -0.150  0.00  0.00    -0.178 NA
ATOM     10  C   LIG    1       -6.294  -1.970   1.074  0.00  0.00    +0.128 C 
ATOM     11  C   LIG    1       -4.765  -2.054   0.869  0.00  0.00    +0.122 C 
ATOM     12  N   LIG    1       -4.152  -0.790   0.400  0.00  0.00    -0.327 N 
ATOM     13  C   LIG    1       -4.904  -0.176  -0.719  0.00  0.00    +0.122 C 
ATOM     14  C   LIG    1       -6.428  -0.113  -0.481  0.00  0.00    +0.128 C 
BRANCH   9  15
ATOM     15  S   LIG    1       -8.687  -1.680  -0.272  0.00  0.00    +0.032 S 
ATOM     16  O   LIG    1       -9.019  -2.991   0.297  0.00  0.00    -0.158 OA
ATOM     17  O   LIG    1       -9.332  -0.468   0.245  0.00  0.00    -0.158 OA
BRANCH  15  19
ATOM     18  C   LIG    1      -10.472  -2.014  -2.425  0.00  0.00    +0.029 C 
ATOM     19  C   LIG    1       -8.987  -1.763  -2.138  0.00  0.00    +0.182 C 
ENDBRANCH  15  19
ENDBRANCH   9  15
ENDBRANCH   3  12
ENDBRANCH   1   6
BRANCH   1  20
ATOM     20  C   LIG    1        2.138   1.233   1.283  0.00  0.00    +0.221 A 
ATOM     21  N   LIG    1        3.473   1.103   1.097  0.00  0.00    -0.199 NA
ATOM     22  C   LIG    1        4.287   2.113   1.522  0.00  0.00    +0.136 A 
ATOM     23  C   LIG    1        3.753   3.262   2.157  0.00  0.00    +0.094 A 
ATOM     24  C   LIG    1        2.357   3.289   2.309  0.00  0.00    +0.131 A 
ATOM     25  N   LIG    1        1.543   2.293   1.885  0.00  0.00    -0.222 NA
BRANCH  23  26
ATOM     26  C   LIG    1        4.596   4.426   2.638  0.00  0.00    +0.246 C 
ATOM     27  O   LIG    1        5.629   4.762   2.061  0.00  0.00    -0.270 OA
ATOM     28  N   LIG    1        4.168   5.063   3.733  0.00  0.00    -0.325 N 
ATOM     29  H   LIG    1        4.694   5.844   4.099  0.00  0.00    +0.145 HD
ATOM     30  H   LIG    1        3.331   4.762   4.208  0.00  0.00    +0.145 HD
ENDBRANCH  23  26
BRANCH  22  31
ATOM     31  N   LIG    1        5.677   1.957   1.342  0.00  0.00    -0.325 N 
ATOM     32  H   LIG    1        6.199   2.816   1.446  0.00  0.00    +0.148 HD
BRANCH  31  33
ATOM     33  C   LIG    1        6.190   1.021   0.348  0.00  0.00    +0.072 C 
ATOM     34  C   LIG    1        6.578   1.576  -0.998  0.00  0.00    +0.024 C 
ATOM     35  C   LIG    1        7.648   1.133  -0.014  0.00  0.00    +0.024 C 
ENDBRANCH  31  33
ENDBRANCH  22  31
ENDBRANCH   1  20
TORSDOF 8
