REMARK  Name = DB15314
REMARK                            x       y       z     vdW  Elec       q    Type
REMARK                         _______ _______ _______ _____ _____    ______ ____
ROOT
ATOM      1  C   UNK A  1       -1.851   1.320  -2.256  0.00  0.00    +0.160 C 
ENDROOT
BRANCH   1   2
ATOM      2  N   UNK A  1       -0.802   0.906  -1.324  0.00  0.00    -0.302 N 
ATOM      3  H   UNK A  1       -0.565  -0.075  -1.335  0.00  0.00    +0.150 HD
ATOM      4  C   UNK A  1       -0.124   1.743  -0.519  0.00  0.00    +0.236 C 
ATOM      5  O   UNK A  1       -0.344   2.952  -0.424  0.00  0.00    -0.274 OA
BRANCH   4   6
ATOM      6  C   UNK A  1        1.003   1.120   0.314  0.00  0.00    +0.184 C 
BRANCH   6   7
ATOM      7  N   UNK A  1        2.207   1.930   0.151  0.00  0.00    -0.301 N 
ATOM      8  H   UNK A  1        2.259   2.760   0.724  0.00  0.00    +0.150 HD
ATOM      9  C   UNK A  1        3.139   1.721  -0.791  0.00  0.00    +0.234 C 
ATOM     10  O   UNK A  1        3.170   0.745  -1.542  0.00  0.00    -0.274 OA
BRANCH   9  11
ATOM     11  C   UNK A  1        4.199   2.829  -0.936  0.00  0.00    +0.163 C 
BRANCH  11  12
ATOM     12  N   UNK A  1        5.563   2.307  -0.833  0.00  0.00    -0.302 N 
ATOM     13  H   UNK A  1        6.121   2.383  -1.671  0.00  0.00    +0.150 HD
ATOM     14  C   UNK A  1        6.076   1.676   0.238  0.00  0.00    +0.236 C 
ATOM     15  O   UNK A  1        5.477   1.532   1.306  0.00  0.00    -0.274 OA
BRANCH  14  16
ATOM     16  C   UNK A  1        7.487   1.078   0.057  0.00  0.00    +0.184 C 
BRANCH  16  17
ATOM     17  N   UNK A  1        8.176   0.921   1.337  0.00  0.00    -0.301 N 
ATOM     18  H   UNK A  1        8.187  -0.018   1.708  0.00  0.00    +0.150 HD
ATOM     19  C   UNK A  1        8.684   1.912   2.092  0.00  0.00    +0.234 C 
ATOM     20  O   UNK A  1        8.723   3.091   1.745  0.00  0.00    -0.274 OA
BRANCH  19  21
ATOM     21  C   UNK A  1        9.220   1.529   3.491  0.00  0.00    +0.159 C 
BRANCH  21  22
ATOM     22  N   UNK A  1        8.781   0.203   3.936  0.00  0.00    -0.302 N 
ATOM     23  H   UNK A  1        9.457  -0.541   3.841  0.00  0.00    +0.150 HD
ATOM     24  C   UNK A  1        7.548  -0.084   4.386  0.00  0.00    +0.234 C 
ATOM     25  O   UNK A  1        6.663   0.752   4.570  0.00  0.00    -0.274 OA
BRANCH  24  26
ATOM     26  C   UNK A  1        7.269  -1.569   4.680  0.00  0.00    +0.159 C 
BRANCH  26  27
ATOM     27  N   UNK A  1        7.392  -1.801   6.117  0.00  0.00    -0.302 N 
ATOM     28  H   UNK A  1        6.545  -1.695   6.657  0.00  0.00    +0.150 HD
ATOM     29  C   UNK A  1        8.563  -1.990   6.748  0.00  0.00    +0.234 C 
ATOM     30  O   UNK A  1        9.648  -2.123   6.177  0.00  0.00    -0.274 OA
BRANCH  29  31
ATOM     31  C   UNK A  1        8.517  -1.944   8.281  0.00  0.00    +0.159 C 
BRANCH  31  32
ATOM     32  N   UNK A  1        9.364  -3.006   8.816  0.00  0.00    -0.302 N 
ATOM     33  H   UNK A  1       10.049  -3.377   8.174  0.00  0.00    +0.150 HD
ATOM     34  C   UNK A  1        9.339  -3.459  10.078  0.00  0.00    +0.234 C 
ATOM     35  O   UNK A  1        8.554  -3.073  10.945  0.00  0.00    -0.274 OA
BRANCH  34  36
ATOM     36  C   UNK A  1       10.401  -4.521  10.424  0.00  0.00    +0.159 C 
BRANCH  36  37
ATOM     37  N   UNK A  1       11.500  -3.943  11.200  0.00  0.00    -0.302 N 
ATOM     38  H   UNK A  1       11.585  -4.276  12.149  0.00  0.00    +0.150 HD
ATOM     39  C   UNK A  1       12.369  -3.017  10.757  0.00  0.00    +0.234 C 
ATOM     40  O   UNK A  1       12.357  -2.534   9.623  0.00  0.00    -0.274 OA
BRANCH  39  41
ATOM     41  C   UNK A  1       13.420  -2.550  11.780  0.00  0.00    +0.159 C 
BRANCH  41  42
ATOM     42  N   UNK A  1       14.624  -2.034  11.128  0.00  0.00    -0.302 N 
ATOM     43  H   UNK A  1       14.711  -1.028  11.099  0.00  0.00    +0.150 HD
ATOM     44  C   UNK A  1       15.576  -2.791  10.560  0.00  0.00    +0.234 C 
ATOM     45  O   UNK A  1       15.566  -4.023  10.536  0.00  0.00    -0.274 OA
BRANCH  44  46
ATOM     46  C   UNK A  1       16.725  -2.024   9.884  0.00  0.00    +0.159 C 
BRANCH  46  47
ATOM     47  N   UNK A  1       18.033  -2.544  10.288  0.00  0.00    -0.304 N 
ATOM     48  H   UNK A  1       18.536  -3.059   9.580  0.00  0.00    +0.149 HD
ATOM     49  C   UNK A  0       18.573  -2.409  11.511  0.00  0.00    +0.211 C 
ATOM     50  O   UNK A  0       18.032  -1.800  12.432  0.00  0.00    -0.276 OA
ATOM     51  C   UNK A  0       19.937  -3.057  11.729  0.00  0.00    +0.109 C 
ENDBRANCH  46  47
BRANCH  46  52
ATOM     52  C   UNK A  1       16.591  -2.097   8.348  0.00  0.00    +0.032 C 
BRANCH  52  53
ATOM     53  C   UNK A  1       17.565  -1.171   7.598  0.00  0.00    +0.003 C 
BRANCH  53  54
ATOM     54  C   UNK A  1       17.413  -1.268   6.073  0.00  0.00    +0.015 C 
BRANCH  54  55
ATOM     55  C   UNK A  1       18.390  -0.343   5.332  0.00  0.00    +0.077 C 
BRANCH  55  56
ATOM     56  N   UNK A  1       18.249  -0.511   3.899  0.00  0.00    -0.330 NA
ATOM     57  H   UNK A  1       18.505  -1.457   3.651  0.00  0.00    +0.118 HD
ATOM     58  H   UNK A  1       18.910   0.091   3.429  0.00  0.00    +0.118 HD
ENDBRANCH  55  56
ENDBRANCH  54  55
ENDBRANCH  53  54
ENDBRANCH  52  53
ENDBRANCH  46  52
ENDBRANCH  44  46
ENDBRANCH  41  42
BRANCH  41  59
ATOM     59  C   UNK A  1       12.840  -1.456  12.700  0.00  0.00    +0.032 C 
BRANCH  59  60
ATOM     60  C   UNK A  1       13.765  -1.104  13.879  0.00  0.00    +0.003 C 
BRANCH  60  61
ATOM     61  C   UNK A  1       13.157  -0.047  14.815  0.00  0.00    +0.015 C 
BRANCH  61  62
ATOM     62  C   UNK A  1       14.084   0.346  15.975  0.00  0.00    +0.077 C 
BRANCH  62  63
ATOM     63  N   UNK A  1       14.241  -0.754  16.908  0.00  0.00    -0.330 NA
ATOM     64  H   UNK A  1       13.349  -0.978  17.323  0.00  0.00    +0.118 HD
ATOM     65  H   UNK A  1       14.847  -0.472  17.666  0.00  0.00    +0.118 HD
ENDBRANCH  62  63
ENDBRANCH  61  62
ENDBRANCH  60  61
ENDBRANCH  59  60
ENDBRANCH  41  59
ENDBRANCH  39  41
ENDBRANCH  36  37
BRANCH  36  66
ATOM     66  C   UNK A  1        9.824  -5.721  11.208  0.00  0.00    +0.032 C 
BRANCH  66  67
ATOM     67  C   UNK A  1        8.677  -6.464  10.498  0.00  0.00    +0.000 C 
BRANCH  67  68
ATOM     68  C   UNK A  1        8.216  -7.709  11.278  0.00  0.00    -0.019 C 
BRANCH  68  69
ATOM     69  C   UNK A  1        7.080  -8.496  10.597  0.00  0.00    -0.086 C 
BRANCH  69  70
ATOM     70  N   UNK A  1        5.800  -7.763  10.599  0.00  0.00    +0.378 N 
ATOM     71  H   UNK A  1        5.524  -7.568  11.550  0.00  0.00    -0.090 HD
ATOM     72  H   UNK A  1        5.908  -6.894  10.095  0.00  0.00    -0.090 HD
ATOM     73  H   UNK A  1        5.090  -8.325  10.151  0.00  0.00    -0.090 HD
ENDBRANCH  69  70
ENDBRANCH  68  69
ENDBRANCH  67  68
ENDBRANCH  66  67
ENDBRANCH  36  66
ENDBRANCH  34  36
ENDBRANCH  31  32
BRANCH  31  74
ATOM     74  C   UNK A  1        8.977  -0.571   8.840  0.00  0.00    +0.032 C 
BRANCH  74  75
ATOM     75  C   UNK A  1        8.261   0.655   8.240  0.00  0.00    +0.000 C 
BRANCH  75  76
ATOM     76  C   UNK A  1        8.709   1.978   8.874  0.00  0.00    -0.019 C 
BRANCH  76  77
ATOM     77  C   UNK A  1        8.037   3.192   8.211  0.00  0.00    -0.086 C 
BRANCH  77  78
ATOM     78  N   UNK A  1        8.493   4.461   8.804  0.00  0.00    +0.378 N 
ATOM     79  H   UNK A  1        8.266   4.476   9.788  0.00  0.00    -0.090 HD
ATOM     80  H   UNK A  1        9.492   4.548   8.686  0.00  0.00    -0.090 HD
ATOM     81  H   UNK A  1        8.032   5.232   8.341  0.00  0.00    -0.090 HD
ENDBRANCH  77  78
ENDBRANCH  76  77
ENDBRANCH  75  76
ENDBRANCH  74  75
ENDBRANCH  31  74
ENDBRANCH  29  31
ENDBRANCH  26  27
BRANCH  26  82
ATOM     82  C   UNK A  1        5.872  -2.026   4.199  0.00  0.00    +0.032 C 
BRANCH  82  83
ATOM     83  C   UNK A  1        5.651  -1.851   2.683  0.00  0.00    +0.000 C 
BRANCH  83  84
ATOM     84  C   UNK A  1        4.258  -2.294   2.218  0.00  0.00    -0.019 C 
BRANCH  84  85
ATOM     85  C   UNK A  1        4.025  -1.991   0.729  0.00  0.00    -0.086 C 
BRANCH  85  86
ATOM     86  N   UNK A  1        2.682  -2.405   0.288  0.00  0.00    +0.378 N 
ATOM     87  H   UNK A  1        2.571  -3.400   0.421  0.00  0.00    -0.090 HD
ATOM     88  H   UNK A  1        1.985  -1.913   0.830  0.00  0.00    -0.090 HD
ATOM     89  H   UNK A  1        2.567  -2.179  -0.690  0.00  0.00    -0.090 HD
ENDBRANCH  85  86
ENDBRANCH  84  85
ENDBRANCH  83  84
ENDBRANCH  82  83
ENDBRANCH  26  82
ENDBRANCH  24  26
ENDBRANCH  21  22
BRANCH  21  90
ATOM     90  C   UNK A  1       10.760   1.606   3.579  0.00  0.00    +0.032 C 
BRANCH  90  91
ATOM     91  C   UNK A  1       11.527   0.648   2.645  0.00  0.00    +0.000 C 
BRANCH  91  92
ATOM     92  C   UNK A  1       13.048   0.740   2.840  0.00  0.00    -0.019 C 
BRANCH  92  93
ATOM     93  C   UNK A  1       13.817  -0.226   1.925  0.00  0.00    -0.086 C 
BRANCH  93  94
ATOM     94  N   UNK A  1       15.274  -0.121   2.121  0.00  0.00    +0.378 N 
ATOM     95  H   UNK A  1       15.576   0.820   1.915  0.00  0.00    -0.090 HD
ATOM     96  H   UNK A  1       15.506  -0.345   3.079  0.00  0.00    -0.090 HD
ATOM     97  H   UNK A  1       15.745  -0.766   1.504  0.00  0.00    -0.090 HD
ENDBRANCH  93  94
ENDBRANCH  92  93
ENDBRANCH  91  92
ENDBRANCH  90  91
ENDBRANCH  21  90
ENDBRANCH  19  21
ENDBRANCH  16  17
BRANCH  16  98
ATOM     98  C   UNK A  1        7.444  -0.316  -0.610  0.00  0.00    +0.187 C 
BRANCH  98  99
ATOM     99  O   UNK A  1        6.832  -0.300  -1.885  0.00  0.00    -0.393 OA
ATOM    100  H   UNK A  1        7.428   0.124  -2.506  0.00  0.00    +0.209 HD
ENDBRANCH  98  99
ENDBRANCH  16  98
ENDBRANCH  14  16
ENDBRANCH  11  12
BRANCH  11 101
ATOM    101  C   UNK A  1        4.057   3.601  -2.270  0.00  0.00    +0.067 C 
BRANCH 101 102
ATOM    102  C   UNK A  1        2.642   3.994  -2.676  0.00  0.00    -0.045 A 
ATOM    103  C   UNK A  1        1.977   5.048  -2.014  0.00  0.00    +0.007 A 
ATOM    104  C   UNK A  1        0.661   5.397  -2.380  0.00  0.00    +0.045 A 
ATOM    105  C   UNK A  1        0.004   4.691  -3.409  0.00  0.00    +0.117 A 
ATOM    106  C   UNK A  1        0.667   3.642  -4.074  0.00  0.00    +0.045 A 
ATOM    107  C   UNK A  1        1.981   3.294  -3.708  0.00  0.00    +0.007 A 
BRANCH 105 108
ATOM    108  O   UNK A  1       -1.273   5.017  -3.761  0.00  0.00    -0.507 OA
ATOM    109  H   UNK A  1       -1.632   5.748  -3.252  0.00  0.00    +0.292 HD
ENDBRANCH 105 108
ENDBRANCH 101 102
ENDBRANCH  11 101
ENDBRANCH   9  11
ENDBRANCH   6   7
BRANCH   6 110
ATOM    110  C   UNK A  1        0.624   1.061   1.804  0.00  0.00    +0.187 C 
BRANCH 110 111
ATOM    111  O   UNK A  1        1.505   0.195   2.491  0.00  0.00    -0.393 OA
ATOM    112  H   UNK A  1        2.348   0.643   2.597  0.00  0.00    +0.209 HD
ENDBRANCH 110 111
ENDBRANCH   6 110
ENDBRANCH   4   6
ENDBRANCH   1   2
BRANCH   1 113
ATOM    113  C   UNK A  1       -3.067   1.943  -1.547  0.00  0.00    +0.234 C 
ATOM    114  N   UNK A  1       -3.524   3.074  -2.100  0.00  0.00    -0.302 N 
ATOM    115  H   UNK A  1       -3.071   3.432  -2.930  0.00  0.00    +0.150 HD
ATOM    116  O   UNK A  1       -3.546   1.401  -0.551  0.00  0.00    -0.274 OA
BRANCH 114 117
ATOM    117  C   UNK A  1       -4.615   3.894  -1.585  0.00  0.00    +0.159 C 
BRANCH 117 118
ATOM    118  C   UNK A  1       -5.184   4.768  -2.714  0.00  0.00    +0.234 C 
ATOM    119  N   UNK A  1       -6.398   5.296  -2.484  0.00  0.00    -0.302 N 
ATOM    120  H   UNK A  1       -6.869   5.100  -1.613  0.00  0.00    +0.150 HD
ATOM    121  O   UNK A  1       -4.531   4.958  -3.742  0.00  0.00    -0.274 OA
BRANCH 119 122
ATOM    122  C   UNK A  1       -7.087   6.212  -3.393  0.00  0.00    +0.165 C 
BRANCH 122 123
ATOM    123  C   UNK A  1       -6.397   7.588  -3.467  0.00  0.00    +0.234 C 
ATOM    124  N   UNK A  1       -6.470   8.194  -4.660  0.00  0.00    -0.302 N 
ATOM    125  H   UNK A  1       -6.919   7.718  -5.430  0.00  0.00    +0.150 HD
ATOM    126  O   UNK A  1       -5.874   8.074  -2.464  0.00  0.00    -0.274 OA
BRANCH 124 127
ATOM    127  C   UNK A  1       -6.049   9.563  -4.934  0.00  0.00    +0.163 C 
BRANCH 127 128
ATOM    128  C   UNK A  1       -6.950  10.183  -6.013  0.00  0.00    +0.234 C 
ATOM    129  N   UNK A  1       -7.131  11.509  -5.920  0.00  0.00    -0.302 N 
ATOM    130  H   UNK A  1       -6.699  12.013  -5.159  0.00  0.00    +0.150 HD
ATOM    131  O   UNK A  1       -7.425   9.476  -6.904  0.00  0.00    -0.274 OA
BRANCH 129 132
ATOM    132  C   UNK A  1       -7.816  12.331  -6.910  0.00  0.00    +0.159 C 
BRANCH 132 133
ATOM    133  C   UNK A  1       -7.101  13.685  -6.993  0.00  0.00    +0.234 C 
ATOM    134  N   UNK A  1       -6.819  14.126  -8.229  0.00  0.00    -0.302 N 
ATOM    135  H   UNK A  1       -7.057  13.555  -9.027  0.00  0.00    +0.150 HD
ATOM    136  O   UNK A  1       -6.851  14.305  -5.958  0.00  0.00    -0.274 OA
BRANCH 134 137
ATOM    137  C   UNK A  1       -6.231  15.430  -8.529  0.00  0.00    +0.163 C 
BRANCH 137 138
ATOM    138  C   UNK A  1       -7.239  16.570  -8.295  0.00  0.00    +0.234 C 
ATOM    139  N   UNK A  1       -6.826  17.557  -7.484  0.00  0.00    -0.305 N 
ATOM    140  H   UNK A  1       -5.907  17.500  -7.070  0.00  0.00    +0.149 HD
ATOM    141  O   UNK A  1       -8.335  16.539  -8.858  0.00  0.00    -0.274 OA
BRANCH 139 142
ATOM    142  C   UNK A  1       -7.599  18.762  -7.198  0.00  0.00    +0.200 C 
BRANCH 142 143
ATOM    143  C   UNK A  1       -7.282  19.840  -8.243  0.00  0.00    +0.231 C 
ATOM    144  N   UNK A  1       -8.254  20.738  -8.470  0.00  0.00    -0.303 N 
ATOM    145  H   UNK A  1       -9.127  20.657  -7.969  0.00  0.00    +0.149 HD
ATOM    146  O   UNK A  1       -6.184  19.880  -8.798  0.00  0.00    -0.274 OA
BRANCH 144 147
ATOM    147  C   UNK A  1       -8.153  21.878  -9.382  0.00  0.00    +0.159 C 
BRANCH 147 148
ATOM    148  C   UNK A  1       -8.708  23.140  -8.687  0.00  0.00    +0.237 C 
ATOM    149  N   UNK A  1       -7.962  23.704  -7.703  0.00  0.00    -0.288 N 
ATOM    150  C   UNK A  1       -8.403  24.899  -6.959  0.00  0.00    +0.162 C 
ATOM    151  C   UNK A  1       -7.399  24.993  -5.796  0.00  0.00    +0.033 C 
ATOM    152  C   UNK A  1       -6.131  24.344  -6.324  0.00  0.00    +0.021 C 
ATOM    153  C   UNK A  1       -6.663  23.228  -7.215  0.00  0.00    +0.109 C 
ATOM    154  O   UNK A  1       -9.816  23.561  -9.024  0.00  0.00    -0.274 OA
BRANCH 150 155
ATOM    155  C   UNK A  1       -8.421  26.166  -7.836  0.00  0.00    +0.234 C 
ATOM    156  N   UNK A  1       -9.636  26.668  -8.109  0.00  0.00    -0.302 N 
ATOM    157  H   UNK A  1      -10.455  26.213  -7.731  0.00  0.00    +0.150 HD
ATOM    158  O   UNK A  1       -7.364  26.639  -8.254  0.00  0.00    -0.274 OA
BRANCH 156 159
ATOM    159  C   UNK A  1       -9.893  27.859  -8.930  0.00  0.00    +0.161 C 
BRANCH 159 160
ATOM    160  C   UNK A  1       -9.574  29.191  -8.195  0.00  0.00    +0.231 C 
ATOM    161  O   UNK A  1       -9.334  29.212  -6.988  0.00  0.00    -0.274 OA
ATOM    162  N   UNK A  1       -9.578  30.302  -8.938  0.00  0.00    -0.328 N 
ATOM    163  H   UNK A  1       -9.377  31.195  -8.511  0.00  0.00    +0.145 HD
ATOM    164  H   UNK A  1       -9.778  30.258  -9.927  0.00  0.00    +0.145 HD
ENDBRANCH 159 160
BRANCH 159 165
ATOM    165  C   UNK A  1      -11.367  27.879  -9.458  0.00  0.00    +0.012 C 
ATOM    166  C   UNK A  1      -11.682  26.641 -10.322  0.00  0.00    +0.009 C 
ATOM    167  C   UNK A  1      -12.447  28.047  -8.366  0.00  0.00    +0.009 C 
ENDBRANCH 159 165
ENDBRANCH 156 159
ENDBRANCH 150 155
ENDBRANCH 147 148
BRANCH 147 168
ATOM    168  C   UNK A  1       -8.874  21.562 -10.716  0.00  0.00    +0.032 C 
BRANCH 168 169
ATOM    169  C   UNK A  1       -8.199  20.458 -11.550  0.00  0.00    +0.000 C 
BRANCH 169 170
ATOM    170  C   UNK A  1       -8.838  20.299 -12.937  0.00  0.00    -0.019 C 
BRANCH 170 171
ATOM    171  C   UNK A  1       -8.183  19.178 -13.760  0.00  0.00    -0.086 C 
BRANCH 171 172
ATOM    172  N   UNK A  1       -8.771  19.072 -15.107  0.00  0.00    +0.378 N 
ATOM    173  H   UNK A  1       -9.757  18.870 -15.030  0.00  0.00    -0.090 HD
ATOM    174  H   UNK A  1       -8.644  19.944 -15.600  0.00  0.00    -0.090 HD
ATOM    175  H   UNK A  1       -8.314  18.329 -15.616  0.00  0.00    -0.090 HD
ENDBRANCH 171 172
ENDBRANCH 170 171
ENDBRANCH 169 170
ENDBRANCH 168 169
ENDBRANCH 147 168
ENDBRANCH 144 147
ENDBRANCH 142 143
ENDBRANCH 139 142
ENDBRANCH 137 138
BRANCH 137 176
ATOM    176  C   UNK A  1       -5.688  15.415  -9.973  0.00  0.00    +0.069 C 
BRANCH 176 177
ATOM    177  C   UNK A  1       -5.128  16.709 -10.488  0.00  0.00    -0.020 A 
ATOM    178  C   UNK A  1       -3.914  17.408 -10.074  0.00  0.00    +0.003 A 
ATOM    179  C   UNK A  1       -2.882  17.140  -9.143  0.00  0.00    +0.010 A 
ATOM    180  C   UNK A  1       -1.813  18.041  -8.958  0.00  0.00    +0.001 A 
ATOM    181  C   UNK A  1       -1.751  19.236  -9.702  0.00  0.00    +0.002 A 
ATOM    182  C   UNK A  1       -2.760  19.534 -10.636  0.00  0.00    +0.026 A 
ATOM    183  C   UNK A  1       -3.822  18.628 -10.811  0.00  0.00    +0.047 A 
ATOM    184  N   UNK A  1       -4.943  18.629 -11.614  0.00  0.00    -0.360 N 
ATOM    185  H   UNK A  1       -5.197  19.359 -12.263  0.00  0.00    +0.165 HD
ATOM    186  C   UNK A  1       -5.715  17.505 -11.411  0.00  0.00    +0.087 A 
ENDBRANCH 176 177
ENDBRANCH 137 176
ENDBRANCH 134 137
ENDBRANCH 132 133
BRANCH 132 187
ATOM    187  C   UNK A  1       -9.308  12.466  -6.531  0.00  0.00    +0.033 C 
BRANCH 187 188
ATOM    188  C   UNK A  1      -10.146  13.300  -7.526  0.00  0.00    +0.017 C 
BRANCH 188 189
ATOM    189  C   UNK A  1      -11.609  13.516  -7.095  0.00  0.00    +0.084 C 
BRANCH 189 190
ATOM    190  N   UNK A  1      -11.739  14.441  -5.952  0.00  0.00    -0.283 NA
ATOM    191  H   UNK A  1      -11.791  13.999  -5.045  0.00  0.00    +0.125 HD
BRANCH 190 192
ATOM    192  C   UNK A  1      -11.739  15.788  -5.989  0.00  0.00    +0.167 C 
BRANCH 192 193
ATOM    193  N   UNK A  1      -11.626  16.480  -7.136  0.00  0.00    -0.297 NA
ATOM    194  H   UNK A  1      -11.528  15.989  -8.013  0.00  0.00    +0.121 HD
ATOM    195  H   UNK A  1      -11.633  17.490  -7.127  0.00  0.00    +0.121 HD
ENDBRANCH 192 193
BRANCH 192 196
ATOM    196  N   UNK A  1      -11.854  16.463  -4.838  0.00  0.00    -0.297 NA
ATOM    197  H   UNK A  1      -11.939  15.965  -3.964  0.00  0.00    +0.121 HD
ATOM    198  H   UNK A  1      -11.862  17.474  -4.838  0.00  0.00    +0.121 HD
ENDBRANCH 192 196
ENDBRANCH 190 192
ENDBRANCH 189 190
ENDBRANCH 188 189
ENDBRANCH 187 188
ENDBRANCH 132 187
ENDBRANCH 129 132
ENDBRANCH 127 128
BRANCH 127 199
ATOM    199  C   UNK A  1       -4.540   9.599  -5.286  0.00  0.00    +0.067 C 
BRANCH 199 200
ATOM    200  C   UNK A  1       -3.999  10.947  -5.743  0.00  0.00    -0.045 A 
ATOM    201  C   UNK A  1       -3.746  11.962  -4.795  0.00  0.00    +0.004 A 
ATOM    202  C   UNK A  1       -3.374  13.232  -5.218  0.00  0.00    +0.000 A 
ATOM    203  C   UNK A  1       -3.272  13.516  -6.574  0.00  0.00    +0.000 A 
ATOM    204  C   UNK A  1       -3.547  12.537  -7.520  0.00  0.00    +0.000 A 
ATOM    205  C   UNK A  1       -3.920  11.261  -7.118  0.00  0.00    +0.004 A 
ENDBRANCH 199 200
ENDBRANCH 127 199
ENDBRANCH 124 127
ENDBRANCH 122 123
BRANCH 122 206
ATOM    206  C   UNK A  1       -8.560   6.342  -2.948  0.00  0.00    +0.088 C 
BRANCH 206 207
ATOM    207  C   UNK A  1       -9.425   7.183  -3.860  0.00  0.00    +0.061 A 
ATOM    208  N   UNK A  1       -9.698   8.533  -3.608  0.00  0.00    -0.241 NA
ATOM    209  C   UNK A  1      -10.443   8.927  -4.632  0.00  0.00    +0.196 A 
ATOM    210  N   UNK A  1      -10.675   7.954  -5.513  0.00  0.00    -0.351 N 
ATOM    211  H   UNK A  1      -11.212   8.031  -6.364  0.00  0.00    +0.166 HD
ATOM    212  C   UNK A  1      -10.039   6.819  -5.041  0.00  0.00    +0.107 A 
ENDBRANCH 206 207
ENDBRANCH 122 206
ENDBRANCH 119 122
ENDBRANCH 117 118
BRANCH 117 213
ATOM    213  C   UNK A  1       -4.119   4.731  -0.380  0.00  0.00    +0.043 C 
BRANCH 213 214
ATOM    214  C   UNK A  1       -2.963   5.704  -0.694  0.00  0.00    +0.123 C 
BRANCH 214 215
ATOM    215  C   UNK A  1       -2.465   6.417   0.560  0.00  0.00    +0.305 C 
ATOM    216  O   UNK A  1       -2.840   7.535   0.904  0.00  0.00    -0.251 OA
BRANCH 215 217
ATOM    217  O   UNK A  1       -1.558   5.669   1.253  0.00  0.00    -0.481 OA
ATOM    218  H   UNK A  1       -1.243   6.112   2.043  0.00  0.00    +0.295 HD
ENDBRANCH 215 217
ENDBRANCH 214 215
ENDBRANCH 213 214
ENDBRANCH 117 213
ENDBRANCH 114 117
ENDBRANCH   1 113
BRANCH   1 219
ATOM    219  C   UNK A  1       -2.233   0.129  -3.164  0.00  0.00    +0.042 C 
BRANCH 219 220
ATOM    220  C   UNK A  1       -3.322   0.428  -4.213  0.00  0.00    +0.071 C 
BRANCH 220 222
ATOM    221  C   UNK A  1       -4.567   2.068  -6.071  0.00  0.00    +0.084 C 
ATOM    222  S   UNK A  1       -2.925   1.773  -5.368  0.00  0.00    -0.164 S 
ENDBRANCH 220 222
ENDBRANCH 219 220
ENDBRANCH   1 219
TORSDOF 100
