REMARK  Name = DB15052
REMARK                            x       y       z     vdW  Elec       q    Type
REMARK                         _______ _______ _______ _____ _____    ______ ____
ROOT
ATOM      1  C   LIG    1        2.023   0.554  -1.285  0.00  0.00    -0.043 A 
ATOM      2  C   LIG    1        1.510   0.301  -2.563  0.00  0.00    +0.007 A 
ATOM      3  C   LIG    1        2.043   0.948  -3.673  0.00  0.00    +0.046 A 
ATOM      4  C   LIG    1        3.099   1.847  -3.515  0.00  0.00    +0.132 A 
ATOM      5  C   LIG    1        3.605   2.116  -2.241  0.00  0.00    +0.046 A 
ATOM      6  C   LIG    1        3.072   1.467  -1.131  0.00  0.00    +0.007 A 
ENDROOT
BRANCH   1   7
ATOM      7  C   LIG    1        1.453  -0.165  -0.051  0.00  0.00    +0.034 C 
BRANCH   7   8
ATOM      8  C   LIG    1        1.902  -1.663   0.033  0.00  0.00    +0.071 C 
ATOM      9  C   LIG    1        1.359  -2.407   1.302  0.00  0.00    +0.035 C 
ATOM     10  C   LIG    1        2.069  -3.702   1.748  0.00  0.00    +0.003 C 
ATOM     11  C   LIG    1        3.593  -3.565   1.752  0.00  0.00    +0.000 C 
ATOM     12  C   LIG    1        4.082  -3.171   0.357  0.00  0.00    +0.003 C 
ATOM     13  C   LIG    1        3.450  -1.856  -0.140  0.00  0.00    +0.035 C 
BRANCH   8  14
ATOM     14  O   LIG    1        1.405  -2.497  -1.004  0.00  0.00    -0.388 OA
ATOM     15  H   LIG    1        1.805  -3.365  -0.911  0.00  0.00    +0.210 HD
ENDBRANCH   8  14
ENDBRANCH   7   8
BRANCH   7  16
ATOM     16  C   LIG    1       -0.091   0.005   0.086  0.00  0.00    -0.069 C 
BRANCH  16  18
ATOM     17  C   LIG    1       -0.032   2.404   1.049  0.00  0.00    -0.097 C 
ATOM     18  N   LIG    1       -0.558   1.476  -0.065  0.00  0.00    +0.376 N 
ATOM     19  H   LIG    1       -0.183   1.814  -0.941  0.00  0.00    -0.083 HD
ATOM     20  C   LIG    1       -2.092   1.566  -0.173  0.00  0.00    -0.097 C 
ENDBRANCH  16  18
ENDBRANCH   7  16
ENDBRANCH   1   7
BRANCH   4  21
ATOM     21  O   LIG    1        3.607   2.495  -4.620  0.00  0.00    -0.422 OA
BRANCH  21  22
ATOM     22  C   LIG    1        4.798   2.091  -5.165  0.00  0.00    +0.344 C 
ATOM     23  O   LIG    1        5.467   1.144  -4.737  0.00  0.00    -0.245 OA
BRANCH  22  24
ATOM     24  C   LIG    1        5.210   2.914  -6.351  0.00  0.00    +0.059 A 
ATOM     25  C   LIG    1        6.401   2.600  -7.022  0.00  0.00    +0.015 A 
ATOM     26  C   LIG    1        6.809   3.342  -8.127  0.00  0.00    +0.004 A 
ATOM     27  C   LIG    1        6.031   4.410  -8.575  0.00  0.00    -0.050 A 
ATOM     28  C   LIG    1        6.467   5.223  -9.781  0.00  0.00    +0.044 C 
ATOM     29  C   LIG    1        4.848   4.737  -7.914  0.00  0.00    +0.004 A 
ATOM     30  C   LIG    1        4.438   3.994  -6.810  0.00  0.00    +0.015 A 
ENDBRANCH  22  24
ENDBRANCH  21  22
ENDBRANCH   4  21
TORSDOF 8
