REMARK  Name = DB15341
REMARK                            x       y       z     vdW  Elec       q    Type
REMARK                         _______ _______ _______ _____ _____    ______ ____
ROOT
ATOM      1  C   LIG    1        0.309  -0.217  -0.080  0.00  0.00    +0.000 C 
ENDROOT
BRANCH   1   2
ATOM      2  C   LIG    1       -0.466   1.111  -0.146  0.00  0.00    +0.001 C 
BRANCH   2   3
ATOM      3  C   LIG    1       -1.988   0.910  -0.056  0.00  0.00    +0.011 C 
BRANCH   3   4
ATOM      4  C   LIG    1       -2.770   2.230  -0.210  0.00  0.00    +0.121 C 
BRANCH   4   5
ATOM      5  C   LIG    1       -4.294   2.073  -0.140  0.00  0.00    +0.312 C 
ATOM      6  O   LIG    1       -4.828   1.072   0.347  0.00  0.00    -0.250 OA
BRANCH   5   7
ATOM      7  O   LIG    1       -4.932   3.138  -0.697  0.00  0.00    -0.422 OA
BRANCH   7  24
ATOM      8  C   LIG    1       -7.740  -0.693  -2.087  0.00  0.00    +0.156 C 
ATOM      9  C   LIG    1       -7.551   0.568  -3.011  0.00  0.00    +0.215 C 
ATOM     10  O   LIG    1       -6.429   1.353  -2.533  0.00  0.00    -0.481 OA
ATOM     11  C   LIG    1       -6.965   2.322  -1.712  0.00  0.00    +0.167 A 
ATOM     12  C   LIG    1       -8.329   2.374  -1.842  0.00  0.00    +0.013 A 
ATOM     13  C   LIG    1       -9.143   3.140  -1.012  0.00  0.00    -0.041 A 
ATOM     14  C   LIG    1       -8.493   3.965  -0.082  0.00  0.00    +0.008 A 
ATOM     15  C   LIG    1       -7.090   3.986   0.011  0.00  0.00    +0.050 A 
ATOM     16  C   LIG    1      -10.659   2.969  -1.135  0.00  0.00    +0.023 C 
ATOM     17  C   LIG    1      -11.095   2.284  -2.477  0.00  0.00    -0.031 C 
ATOM     18  N   LIG    1      -11.044   3.375  -3.609  0.00  0.00    +0.384 N 
ATOM     19  H   LIG    1      -11.443   4.211  -3.206  0.00  0.00    -0.081 HD
ATOM     20  C   LIG    1       -9.615   3.770  -4.087  0.00  0.00    -0.077 C 
ATOM     21  C   LIG    1       -8.729   2.514  -4.280  0.00  0.00    -0.001 C 
ATOM     22  C   LIG    1      -10.204   1.028  -2.826  0.00  0.00    +0.068 C 
ATOM     23  C   LIG    1      -10.228  -0.122  -1.781  0.00  0.00    +0.037 C 
ATOM     24  C   LIG    1       -6.306   3.143  -0.793  0.00  0.00    +0.173 A 
ATOM     25  C   LIG    1       -8.746   1.565  -3.036  0.00  0.00    +0.064 C 
ATOM     26  C   LIG    1       -9.187  -1.229  -2.088  0.00  0.00    +0.038 C 
BRANCH   8  27
ATOM     27  O   LIG    1       -7.369  -0.448  -0.739  0.00  0.00    -0.388 OA
ATOM     28  H   LIG    1       -6.459  -0.142  -0.721  0.00  0.00    +0.210 HD
ENDBRANCH   8  27
BRANCH  22  29
ATOM     29  O   LIG    1      -10.613   0.397  -4.034  0.00  0.00    -0.389 OA
ATOM     30  H   LIG    1      -11.497   0.042  -3.910  0.00  0.00    +0.210 HD
ENDBRANCH  22  29
BRANCH  18  31
ATOM     31  C   LIG    1      -11.931   3.091  -4.856  0.00  0.00    -0.075 C 
BRANCH  31  32
ATOM     32  C   LIG    1      -13.403   2.793  -4.502  0.00  0.00    -0.028 C 
ATOM     33  C   LIG    1      -14.185   3.820  -3.671  0.00  0.00    +0.002 C 
ATOM     34  C   LIG    1      -15.410   3.442  -4.522  0.00  0.00    +0.000 C 
ATOM     35  C   LIG    1      -14.442   2.965  -5.618  0.00  0.00    +0.002 C 
ENDBRANCH  31  32
ENDBRANCH  18  31
ENDBRANCH   7  24
ENDBRANCH   5   7
ENDBRANCH   4   5
ENDBRANCH   3   4
ENDBRANCH   2   3
ENDBRANCH   1   2
BRANCH   1  36
ATOM     36  C   LIG    1        1.837  -0.029  -0.084  0.00  0.00    +0.000 C 
BRANCH  36  37
ATOM     37  C   LIG    1        2.587  -1.370  -0.022  0.00  0.00    +0.001 C 
BRANCH  37  38
ATOM     38  C   LIG    1        4.106  -1.221   0.201  0.00  0.00    +0.011 C 
BRANCH  38  39
ATOM     39  C   LIG    1        4.863  -2.559   0.360  0.00  0.00    +0.121 C 
BRANCH  39  40
ATOM     40  C   LIG    1        4.440  -3.350   1.603  0.00  0.00    +0.312 C 
ATOM     41  O   LIG    1        4.917  -3.099   2.712  0.00  0.00    -0.250 OA
BRANCH  40  42
ATOM     42  O   LIG    1        3.492  -4.283   1.317  0.00  0.00    -0.422 OA
BRANCH  42  43
ATOM     43  C   LIG    1        2.867  -4.952   2.344  0.00  0.00    +0.173 A 
ATOM     44  C   LIG    1        3.188  -6.282   2.660  0.00  0.00    +0.050 A 
ATOM     45  C   LIG    1        2.466  -6.978   3.646  0.00  0.00    +0.008 A 
ATOM     46  C   LIG    1        1.428  -6.355   4.356  0.00  0.00    -0.041 A 
ATOM     47  C   LIG    1        1.179  -5.019   4.053  0.00  0.00    +0.013 A 
ATOM     48  C   LIG    1        0.262  -4.073   4.775  0.00  0.00    +0.064 C 
ATOM     49  C   LIG    1        1.076  -3.411   5.935  0.00  0.00    -0.001 C 
ATOM     50  C   LIG    1        1.717  -4.454   6.882  0.00  0.00    -0.077 C 
ATOM     51  N   LIG    1        0.659  -5.489   7.365  0.00  0.00    +0.384 N 
ATOM     52  H   LIG    1        1.181  -6.291   7.687  0.00  0.00    -0.081 HD
ATOM     53  C   LIG    1       -0.304  -6.037   6.248  0.00  0.00    -0.031 C 
ATOM     54  C   LIG    1       -0.939  -4.873   5.387  0.00  0.00    +0.068 C 
ATOM     55  C   LIG    1       -1.929  -5.322   4.276  0.00  0.00    +0.037 C 
ATOM     56  C   LIG    1       -2.361  -4.156   3.352  0.00  0.00    +0.038 C 
ATOM     57  C   LIG    1       -1.170  -3.510   2.615  0.00  0.00    +0.156 C 
ATOM     58  C   LIG    1        0.009  -3.108   3.579  0.00  0.00    +0.215 C 
ATOM     59  O   LIG    1        1.254  -3.111   2.837  0.00  0.00    -0.481 OA
ATOM     60  C   LIG    1        0.513  -7.047   5.370  0.00  0.00    +0.023 C 
ATOM     61  C   LIG    1        1.823  -4.348   3.046  0.00  0.00    +0.167 A 
BRANCH  54  62
ATOM     62  O   LIG    1       -1.704  -3.970   6.177  0.00  0.00    -0.389 OA
ATOM     63  H   LIG    1       -2.464  -4.440   6.529  0.00  0.00    +0.210 HD
ENDBRANCH  54  62
BRANCH  57  64
ATOM     64  O   LIG    1       -0.756  -4.395   1.585  0.00  0.00    -0.388 OA
ATOM     65  H   LIG    1       -0.033  -3.985   1.104  0.00  0.00    +0.210 HD
ENDBRANCH  57  64
BRANCH  51  66
ATOM     66  C   LIG    1       -0.114  -5.010   8.627  0.00  0.00    -0.075 C 
BRANCH  66  67
ATOM     67  C   LIG    1        0.797  -4.938   9.880  0.00  0.00    -0.028 C 
ATOM     68  C   LIG    1        1.306  -3.521  10.223  0.00  0.00    +0.002 C 
ATOM     69  C   LIG    1        0.147  -3.355  11.211  0.00  0.00    +0.000 C 
ATOM     70  C   LIG    1        0.001  -4.879  11.198  0.00  0.00    +0.002 C 
ENDBRANCH  66  67
ENDBRANCH  51  66
ENDBRANCH  42  43
ENDBRANCH  40  42
ENDBRANCH  39  40
ENDBRANCH  38  39
ENDBRANCH  37  38
ENDBRANCH  36  37
ENDBRANCH   1  36
TORSDOF 21
