REMARK  Name = DB15640
REMARK                            x       y       z     vdW  Elec       q    Type
REMARK                         _______ _______ _______ _____ _____    ______ ____
ROOT
ATOM      1  C   LIG    1        1.546  -0.287  -0.142  0.00  0.00    +0.123 C 
ENDROOT
BRANCH   1   2
ATOM      2  N   LIG    1        2.106  -1.668  -0.097  0.00  0.00    -0.226 N 
ATOM      3  C   LIG    1        2.693  -2.186   1.018  0.00  0.00    +0.254 C 
ATOM      4  O   LIG    1        2.855  -1.631   2.106  0.00  0.00    -0.270 OA
ATOM      5  C   LIG    1        3.098  -3.564   0.641  0.00  0.00    +0.049 A 
ATOM      6  C   LIG    1        3.744  -4.561   1.374  0.00  0.00    +0.014 A 
ATOM      7  C   LIG    1        4.001  -5.788   0.753  0.00  0.00    +0.001 A 
ATOM      8  C   LIG    1        3.615  -6.002  -0.577  0.00  0.00    +0.001 A 
ATOM      9  C   LIG    1        2.969  -4.990  -1.295  0.00  0.00    +0.014 A 
ATOM     10  C   LIG    1        2.722  -3.773  -0.658  0.00  0.00    +0.049 A 
ATOM     11  C   LIG    1        2.066  -2.536  -1.149  0.00  0.00    +0.254 C 
ATOM     12  O   LIG    1        1.583  -2.338  -2.264  0.00  0.00    -0.270 OA
ENDBRANCH   1   2
BRANCH   1  16
ATOM     13  C   LIG    1       -2.813   0.095   0.021  0.00  0.00    +0.162 A 
ATOM     14  C   LIG    1       -2.003   1.236  -0.054  0.00  0.00    +0.163 A 
ATOM     15  C   LIG    1       -0.607   1.087  -0.099  0.00  0.00    +0.055 A 
ATOM     16  C   LIG    1        0.003  -0.175  -0.097  0.00  0.00    -0.022 A 
ATOM     17  C   LIG    1       -0.825  -1.301  -0.002  0.00  0.00    +0.009 A 
ATOM     18  C   LIG    1       -2.209  -1.171   0.051  0.00  0.00    +0.050 A 
BRANCH  13  20
ATOM     19  C   LIG    1       -5.051  -0.833   0.146  0.00  0.00    +0.277 C 
ATOM     20  O   LIG    1       -4.183   0.293   0.069  0.00  0.00    -0.491 OA
ENDBRANCH  13  20
BRANCH  14  21
ATOM     21  O   LIG    1       -2.649   2.462  -0.077  0.00  0.00    -0.485 OA
BRANCH  21  22
ATOM     22  C   LIG    1       -1.904   3.678  -0.177  0.00  0.00    +0.174 C 
ATOM     23  C   LIG    1       -1.362   3.906  -1.608  0.00  0.00    +0.044 C 
ATOM     24  C   LIG    1       -2.206   5.032  -2.211  0.00  0.00    +0.004 C 
ATOM     25  C   LIG    1       -2.615   5.874  -1.008  0.00  0.00    +0.004 C 
ATOM     26  C   LIG    1       -2.886   4.839   0.085  0.00  0.00    +0.044 C 
ENDBRANCH  21  22
ENDBRANCH  14  21
ENDBRANCH   1  16
BRANCH   1  27
ATOM     27  C   LIG    1        2.227   0.635  -1.208  0.00  0.00    +0.123 C 
BRANCH  27  28
ATOM     28  C   LIG    1        3.755   0.737  -1.076  0.00  0.00    +0.213 C 
ATOM     29  O   LIG    1        4.484  -0.143  -1.529  0.00  0.00    -0.276 OA
ATOM     30  N   LIG    1        4.246   1.813  -0.458  0.00  0.00    -0.329 N 
ATOM     31  H   LIG    1        5.244   1.922  -0.350  0.00  0.00    +0.145 HD
ATOM     32  H   LIG    1        3.627   2.520  -0.088  0.00  0.00    +0.145 HD
ENDBRANCH  27  28
ENDBRANCH   1  27
TORSDOF 7
