REMARK  Name = DB15457
REMARK                            x       y       z     vdW  Elec       q    Type
REMARK                         _______ _______ _______ _____ _____    ______ ____
ROOT
ATOM      1  C   LIG    1        5.761   0.075   0.000  0.00  0.00    +0.109 A 
ATOM      2  S   LIG    1        6.702   1.563   0.000  0.00  0.00    -0.067 S 
ATOM      3  C   LIG    1        8.165   0.592   0.000  0.00  0.00    +0.042 A 
ATOM      4  C   LIG    1        9.510   0.990   0.000  0.00  0.00    +0.055 A 
ATOM      5  C   LIG    1       10.486  -0.007   0.000  0.00  0.00    +0.125 A 
ATOM      6  C   LIG    1       10.139  -1.358   0.000  0.00  0.00    +0.040 A 
ATOM      7  C   LIG    1        8.804  -1.766   0.000  0.00  0.00    +0.032 A 
ATOM      8  F   LIG    1       11.792   0.344   0.000  0.00  0.00    -0.205 F 
ATOM      9  C   LIG    1        7.805  -0.780   0.000  0.00  0.00    +0.079 A 
ATOM     10  N   LIG    1        6.469  -1.026   0.000  0.00  0.00    -0.239 NA
ENDROOT
BRANCH   1  14
ATOM     11  C   LIG    1        1.438   0.052   0.000  0.00  0.00    +0.027 A 
ATOM     12  C   LIG    1        2.131   1.268   0.000  0.00  0.00    +0.023 A 
ATOM     13  C   LIG    1        3.523   1.282   0.000  0.00  0.00    +0.012 A 
ATOM     14  C   LIG    1        4.253   0.085   0.000  0.00  0.00    +0.007 A 
ATOM     15  C   LIG    1        3.548  -1.127   0.000  0.00  0.00    +0.012 A 
ATOM     16  C   LIG    1        2.156  -1.143   0.000  0.00  0.00    +0.023 A 
BRANCH  11  18
ATOM     17  C   LIG    1       -0.807   1.160   0.000  0.00  0.00    +0.125 C 
ATOM     18  N   LIG    1        0.036  -0.027   0.000  0.00  0.00    -0.347 N 
ATOM     19  H   LIG    1       -0.408  -0.934   0.000  0.00  0.00    +0.146 HD
ENDBRANCH  11  18
ENDBRANCH   1  14
TORSDOF 2
