REMARK  Name = DB15075
REMARK                            x       y       z     vdW  Elec       q    Type
REMARK                         _______ _______ _______ _____ _____    ______ ____
ROOT
ATOM      1  C   LIG    1       -5.682  -2.681   6.216  0.00  0.00    +0.184 C 
ATOM      2  C   LIG    1       -5.478  -3.640   5.024  0.00  0.00    +0.075 C 
ATOM      3  C   LIG    1       -4.486  -3.041   4.021  0.00  0.00    -0.064 C 
ATOM      4  C   LIG    1       -4.801  -2.941   2.711  0.00  0.00    -0.027 C 
ATOM      5  C   LIG    1       -3.892  -2.430   1.606  0.00  0.00    +0.031 C 
ATOM      6  C   LIG    1       -2.431  -2.250   2.086  0.00  0.00    +0.000 C 
ATOM      7  C   LIG    1       -1.642  -1.328   1.113  0.00  0.00    -0.001 C 
ATOM      8  C   LIG    1       -1.623  -1.665  -0.378  0.00  0.00    +0.004 C 
ATOM      9  C   LIG    1       -0.425  -0.868  -0.917  0.00  0.00    +0.004 C 
ATOM     10  C   LIG    1        0.332  -0.264   0.302  0.00  0.00    -0.002 C 
ATOM     11  C   LIG    1       -0.153  -1.142   1.506  0.00  0.00    -0.026 C 
ATOM     12  C   LIG    1        0.645  -2.484   1.568  0.00  0.00    +0.012 C 
ATOM     13  C   LIG    1       -0.187  -0.429   2.887  0.00  0.00    +0.007 C 
ATOM     14  C   LIG    1       -0.916  -1.278   3.956  0.00  0.00    +0.005 C 
ATOM     15  C   LIG    1       -2.369  -1.681   3.541  0.00  0.00    +0.003 C 
ATOM     16  C   LIG    1       -3.112  -2.591   4.595  0.00  0.00    -0.008 C 
ATOM     17  C   LIG    1       -2.294  -3.870   4.930  0.00  0.00    +0.016 C 
ATOM     18  C   LIG    1       -3.365  -1.757   5.895  0.00  0.00    +0.015 C 
ATOM     19  C   LIG    1       -4.340  -2.391   6.901  0.00  0.00    +0.046 C 
ENDROOT
BRANCH  10  20
ATOM     20  C   LIG    1        1.872  -0.103   0.052  0.00  0.00    -0.010 C 
ATOM     21  C   LIG    1        2.637   0.420   1.290  0.00  0.00    +0.008 C 
BRANCH  20  22
ATOM     22  C   LIG    1        2.155   0.796  -1.186  0.00  0.00    +0.003 C 
BRANCH  22  23
ATOM     23  C   LIG    1        3.610   0.765  -1.707  0.00  0.00    +0.001 C 
BRANCH  23  24
ATOM     24  C   LIG    1        3.852   1.591  -2.991  0.00  0.00    +0.003 C 
BRANCH  24  25
ATOM     25  C   LIG    1        3.073   1.152  -4.257  0.00  0.00    -0.017 C 
ATOM     26  C   LIG    1        3.393   2.080  -5.444  0.00  0.00    +0.007 C 
ATOM     27  C   LIG    1        3.319  -0.321  -4.637  0.00  0.00    +0.007 C 
ENDBRANCH  24  25
ENDBRANCH  23  24
ENDBRANCH  22  23
ENDBRANCH  20  22
ENDBRANCH  10  20
BRANCH   1  28
ATOM     28  O   LIG    1       -6.592  -3.213   7.179  0.00  0.00    -0.430 OA
BRANCH  28  29
ATOM     29  C   LIG    1       -7.930  -3.151   7.003  0.00  0.00    +0.516 C 
ATOM     30  O   LIG    1       -8.514  -2.642   6.041  0.00  0.00    -0.202 OA
BRANCH  29  31
ATOM     31  O   LIG    1       -8.508  -3.756   8.075  0.00  0.00    -0.392 OA
BRANCH  31  37
ATOM     32  C   LIG    1      -12.016  -2.953   8.822  0.00  0.00    +0.237 A 
ATOM     33  N   LIG    1      -12.666  -4.027   8.295  0.00  0.00    -0.211 NA
ATOM     34  C   LIG    1      -11.957  -5.023   7.699  0.00  0.00    +0.117 A 
ATOM     35  C   LIG    1      -10.550  -4.964   7.608  0.00  0.00    +0.110 A 
ATOM     36 CL   LIG    1       -9.620  -6.229   6.866  0.00  0.00    -0.078 Cl
ATOM     37  C   LIG    1       -9.884  -3.845   8.139  0.00  0.00    +0.179 A 
ATOM     38  C   LIG    1      -10.626  -2.833   8.765  0.00  0.00    +0.146 A 
ATOM     39 CL   LIG    1       -9.843  -1.453   9.460  0.00  0.00    -0.074 Cl
BRANCH  34  40
ATOM     40  C   LIG    1      -12.791  -6.199   7.142  0.00  0.00    +0.234 C 
ATOM     41 CL   LIG    1      -14.559  -6.013   7.384  0.00  0.00    -0.077 Cl
ATOM     42 CL   LIG    1      -12.331  -7.726   7.947  0.00  0.00    -0.077 Cl
ATOM     43 CL   LIG    1      -12.540  -6.364   5.381  0.00  0.00    -0.077 Cl
ENDBRANCH  34  40
BRANCH  32  45
ATOM     44  C   LIG    1      -14.178  -2.062   9.492  0.00  0.00    +0.279 C 
ATOM     45  O   LIG    1      -12.756  -1.954   9.432  0.00  0.00    -0.479 OA
ENDBRANCH  32  45
ENDBRANCH  31  37
ENDBRANCH  29  31
ENDBRANCH  28  29
ENDBRANCH   1  28
TORSDOF 11
