REMARK  Name = DB15463
REMARK                            x       y       z     vdW  Elec       q    Type
REMARK                         _______ _______ _______ _____ _____    ______ ____
ROOT
ATOM      1  C   LIG    1        1.485   0.047   0.143  0.00  0.00    +0.135 A 
ATOM      2  C   LIG    1        2.151  -0.283   1.322  0.00  0.00    +0.048 A 
ATOM      3  C   LIG    1        3.541  -0.381   1.337  0.00  0.00    +0.031 A 
ATOM      4  C   LIG    1        4.286  -0.153   0.174  0.00  0.00    +0.094 A 
ATOM      5  C   LIG    1        3.617   0.171  -1.018  0.00  0.00    +0.018 A 
ATOM      6  C   LIG    1        4.151   0.433  -2.421  0.00  0.00    +0.184 C 
ATOM      7  C   LIG    1        2.917   0.114  -3.272  0.00  0.00    +0.237 C 
ATOM      8  F   LIG    1        2.934   0.689  -4.477  0.00  0.00    -0.239 F 
ATOM      9  C   LIG    1        1.731   0.586  -2.432  0.00  0.00    +0.237 C 
ATOM     10  F   LIG    1        1.576   1.905  -2.583  0.00  0.00    -0.237 F 
ATOM     11  C   LIG    1        2.216   0.266  -1.031  0.00  0.00    +0.039 A 
ENDROOT
BRANCH   4  12
ATOM     12  S   LIG    1        6.073  -0.332   0.248  0.00  0.00    -0.006 S 
ATOM     13  C   LIG    1        6.360  -2.060  -0.450  0.00  0.00    +0.200 C 
ATOM     14  O   LIG    1        6.463  -0.340   1.663  0.00  0.00    -0.170 OA
ATOM     15  O   LIG    1        6.663   0.647  -0.670  0.00  0.00    -0.170 OA
ENDBRANCH   4  12
BRANCH   6  16
ATOM     16  O   LIG    1        4.634   1.755  -2.588  0.00  0.00    -0.384 OA
ATOM     17  H   LIG    1        3.902   2.366  -2.476  0.00  0.00    +0.210 HD
ENDBRANCH   6  16
BRANCH   1  18
ATOM     18  O   LIG    1        0.112   0.126   0.131  0.00  0.00    -0.456 OA
BRANCH  18  24
ATOM     19  C   LIG    1       -2.476   2.479  -0.972  0.00  0.00    +0.058 A 
ATOM     20  C   LIG    1       -1.903   3.709  -0.636  0.00  0.00    +0.057 A 
ATOM     21  C   LIG    1       -0.647   3.753  -0.033  0.00  0.00    +0.128 A 
ATOM     22  F   LIG    1       -0.097   4.943   0.297  0.00  0.00    -0.205 F 
ATOM     23  C   LIG    1        0.042   2.570   0.232  0.00  0.00    +0.084 A 
ATOM     24  C   LIG    1       -0.517   1.329  -0.113  0.00  0.00    +0.132 A 
ATOM     25  C   LIG    1       -1.783   1.295  -0.703  0.00  0.00    +0.065 A 
BRANCH  19  26
ATOM     26  C   LIG    1       -3.789   2.431  -1.599  0.00  0.00    +0.099 C 
ATOM     27  N   LIG    1       -4.832   2.393  -2.098  0.00  0.00    -0.191 NA
ENDBRANCH  19  26
ENDBRANCH  18  24
ENDBRANCH   1  18
TORSDOF 5
