REMARK  Name = DB15202
REMARK                            x       y       z     vdW  Elec       q    Type
REMARK                         _______ _______ _______ _____ _____    ______ ____
ROOT
ATOM      1  C   LIG    1       -0.036  -0.013   0.007  0.00  0.00    +0.336 C 
ATOM      2  O   LIG    1       -0.625   1.091   0.014  0.00  0.00    -0.248 OA
ENDROOT
BRANCH   1   3
ATOM      3  O   LIG    1       -0.604  -1.129   0.016  0.00  0.00    -0.479 OA
ATOM      4  H   LIG    1       -0.662  -1.631  -0.773  0.00  0.00    +0.295 HD
ENDBRANCH   1   3
BRANCH   1   5
ATOM      5  C   LIG    1        1.500   0.001  -0.021  0.00  0.00    +0.333 C 
ATOM      6  F   LIG    1        1.897   0.004   1.254  0.00  0.00    -0.237 F 
ENDBRANCH   1   5
TORSDOF 2
