REMARK  Name = DB15645
REMARK                            x       y       z     vdW  Elec       q    Type
REMARK                         _______ _______ _______ _____ _____    ______ ____
ROOT
ATOM      1  C   LIG    1       -0.493  -0.658  -1.507  0.00  0.00    +0.230 C 
ATOM      2  C   LIG    1       -2.033  -0.599  -1.608  0.00  0.00    +0.202 C 
ATOM      3  O   LIG    1       -2.704  -1.462  -2.178  0.00  0.00    -0.289 OA
ATOM      4  C   LIG    1       -2.664   0.596  -0.939  0.00  0.00    +0.103 A 
ATOM      5  C   LIG    1       -4.055   0.848  -0.942  0.00  0.00    +0.134 A 
ATOM      6  C   LIG    1       -4.575   1.969  -0.290  0.00  0.00    +0.091 A 
ATOM      7  C   LIG    1       -3.733   2.856   0.375  0.00  0.00    +0.124 A 
ATOM      8  C   LIG    1       -2.362   2.626   0.396  0.00  0.00    +0.092 A 
ATOM      9  C   LIG    1       -1.837   1.505  -0.244  0.00  0.00    +0.139 A 
ATOM     10  O   LIG    1       -0.465   1.380  -0.185  0.00  0.00    -0.480 OA
ATOM     11  C   LIG    1        0.002   0.030  -0.209  0.00  0.00    +0.240 C 
ENDROOT
BRANCH  11  12
ATOM     12  C   LIG    1        1.525   0.014  -0.078  0.00  0.00    +0.003 A 
ATOM     13  C   LIG    1        2.148  -0.801   0.873  0.00  0.00    +0.056 A 
ATOM     14  C   LIG    1        3.539  -0.815   0.992  0.00  0.00    +0.162 A 
ATOM     15  C   LIG    1        4.322  -0.008   0.156  0.00  0.00    +0.201 A 
ATOM     16  C   LIG    1        3.701   0.808  -0.799  0.00  0.00    +0.162 A 
ATOM     17  C   LIG    1        2.311   0.815  -0.913  0.00  0.00    +0.056 A 
BRANCH  14  18
ATOM     18  O   LIG    1        4.116  -1.627   1.936  0.00  0.00    -0.503 OA
ATOM     19  H   LIG    1        3.476  -2.130   2.445  0.00  0.00    +0.292 HD
ENDBRANCH  14  18
BRANCH  15  20
ATOM     20  O   LIG    1        5.693  -0.015   0.269  0.00  0.00    -0.501 OA
ATOM     21  H   LIG    1        6.118   0.580  -0.353  0.00  0.00    +0.292 HD
ENDBRANCH  15  20
BRANCH  16  22
ATOM     22  O   LIG    1        4.441   1.609  -1.633  0.00  0.00    -0.503 OA
ATOM     23  H   LIG    1        3.900   2.123  -2.237  0.00  0.00    +0.292 HD
ENDBRANCH  16  22
ENDBRANCH  11  12
BRANCH   1  24
ATOM     24  O   LIG    1       -0.040  -1.996  -1.649  0.00  0.00    -0.380 OA
ATOM     25  H   LIG    1       -0.287  -2.311  -2.522  0.00  0.00    +0.211 HD
ENDBRANCH   1  24
BRANCH   7  26
ATOM     26  O   LIG    1       -4.253   3.954   1.006  0.00  0.00    -0.507 OA
ATOM     27  H   LIG    1       -5.207   4.012   0.924  0.00  0.00    +0.292 HD
ENDBRANCH   7  26
BRANCH   5  28
ATOM     28  O   LIG    1       -4.956   0.028  -1.575  0.00  0.00    -0.506 OA
ATOM     29  H   LIG    1       -5.862   0.333  -1.489  0.00  0.00    +0.292 HD
ENDBRANCH   5  28
TORSDOF 7
