REMARK  Name = DB15245
REMARK                            x       y       z     vdW  Elec       q    Type
REMARK                         _______ _______ _______ _____ _____    ______ ____
ROOT
ATOM      1  C   LIG    1        1.574  -1.849   0.759  0.00  0.00    +0.290 C 
ATOM      2  N   LIG    1        2.558  -2.200   1.617  0.00  0.00    -0.279 N 
ATOM      3  H   LIG    1        2.744  -1.556   2.372  0.00  0.00    +0.155 HD
ATOM      4  O   LIG    1        1.222  -2.446  -0.259  0.00  0.00    -0.266 OA
ENDROOT
BRANCH   2   5
ATOM      5  C   LIG    1        3.391  -3.334   1.590  0.00  0.00    +0.034 A 
ATOM      6  C   LIG    1        4.501  -3.299   2.434  0.00  0.00    +0.025 A 
ATOM      7  C   LIG    1        5.380  -4.377   2.482  0.00  0.00    +0.025 A 
ATOM      8  C   LIG    1        5.169  -5.516   1.693  0.00  0.00    +0.030 A 
ATOM      9  C   LIG    1        4.040  -5.548   0.860  0.00  0.00    +0.025 A 
ATOM     10  C   LIG    1        3.159  -4.472   0.805  0.00  0.00    +0.025 A 
BRANCH   8  11
ATOM     11  N   LIG    1        6.059  -6.588   1.763  0.00  0.00    -0.327 N 
ATOM     12  C   LIG    1        7.508  -6.361   1.688  0.00  0.00    +0.124 C 
ATOM     13  C   LIG    1        8.365  -7.504   2.271  0.00  0.00    +0.127 C 
ATOM     14  N   LIG    1        8.058  -8.841   1.739  0.00  0.00    -0.297 N 
ATOM     15  C   LIG    1        6.604  -9.068   1.766  0.00  0.00    +0.127 C 
ATOM     16  C   LIG    1        5.745  -7.912   1.210  0.00  0.00    +0.124 C 
BRANCH  14  17
ATOM     17  C   LIG    1        8.986  -9.889   1.749  0.00  0.00    +0.218 A 
ATOM     18  N   LIG    1        8.535 -11.148   1.469  0.00  0.00    -0.220 NA
ATOM     19  C   LIG    1        9.455 -12.147   1.438  0.00  0.00    +0.154 A 
ATOM     20  C   LIG    1       10.811 -11.916   1.666  0.00  0.00    +0.160 A 
ATOM     21  F   LIG    1       11.714 -12.922   1.631  0.00  0.00    -0.202 F 
ATOM     22  C   LIG    1       11.194 -10.602   1.928  0.00  0.00    +0.154 A 
ATOM     23  N   LIG    1       10.299  -9.581   1.966  0.00  0.00    -0.220 NA
ENDBRANCH  14  17
ENDBRANCH   8  11
ENDBRANCH   2   5
BRANCH   1  24
ATOM     24  C   LIG    1        0.873  -0.490   1.191  0.00  0.00    +0.264 C 
ATOM     25  O   LIG    1        1.309   0.158   2.147  0.00  0.00    -0.280 OA
BRANCH  24  28
ATOM     26  C   LIG    1        0.807   2.280   0.017  0.00  0.00    +0.149 C 
ATOM     27  N   LIG    1       -0.249   1.271  -0.136  0.00  0.00    -0.344 N 
ATOM     28  C   LIG    1       -0.254  -0.027   0.367  0.00  0.00    +0.102 A 
ATOM     29  C   LIG    1       -1.432  -0.677  -0.017  0.00  0.00    +0.011 A 
ATOM     30  C   LIG    1       -2.119   0.251  -0.806  0.00  0.00    +0.031 A 
ATOM     31  C   LIG    1       -1.408   1.438  -0.875  0.00  0.00    +0.017 A 
ATOM     32  C   LIG    1       -1.750   2.728  -1.593  0.00  0.00    +0.063 C 
BRANCH  29  33
ATOM     33  C   LIG    1       -1.908  -2.054   0.313  0.00  0.00    -0.016 A 
ATOM     34  C   LIG    1       -1.781  -2.560   1.611  0.00  0.00    +0.008 A 
ATOM     35  C   LIG    1       -2.220  -3.849   1.905  0.00  0.00    +0.001 A 
ATOM     36  C   LIG    1       -2.790  -4.629   0.902  0.00  0.00    +0.000 A 
ATOM     37  C   LIG    1       -2.927  -4.131  -0.392  0.00  0.00    +0.001 A 
ATOM     38  C   LIG    1       -2.488  -2.843  -0.685  0.00  0.00    +0.008 A 
ENDBRANCH  29  33
ENDBRANCH  24  28
ENDBRANCH   1  24
TORSDOF 6
