REMARK  Name = DB15442
REMARK                            x       y       z     vdW  Elec       q    Type
REMARK                         _______ _______ _______ _____ _____    ______ ____
ROOT
ATOM      1  C   LIG    1        6.433   1.458   0.653  0.00  0.00    +0.222 A 
ATOM      2  N   LIG    1        7.713   1.111   0.946  0.00  0.00    -0.222 NA
ATOM      3  C   LIG    1        8.676   2.048   0.755  0.00  0.00    +0.126 A 
ATOM      4  C   LIG    1        8.360   3.329   0.278  0.00  0.00    +0.038 A 
ATOM      5  C   LIG    1        9.072   4.506  -0.076  0.00  0.00    +0.044 A 
ATOM      6  C   LIG    1        8.148   5.450  -0.500  0.00  0.00    +0.107 A 
ATOM      7  C   LIG    1        8.412   6.742  -1.104  0.00  0.00    +0.261 C 
ATOM      8  O   LIG    1        9.496   7.182  -1.479  0.00  0.00    -0.269 OA
ATOM      9  N   LIG    1        7.298   7.491  -1.255  0.00  0.00    -0.308 N 
ATOM     10  H   LIG    1        7.391   8.352  -1.773  0.00  0.00    +0.149 HD
ATOM     11  C   LIG    1        5.968   7.138  -0.745  0.00  0.00    +0.133 C 
ATOM     12  C   LIG    1        5.638   5.612  -0.883  0.00  0.00    +0.063 C 
ATOM     13  C   LIG    1        5.340   5.187  -2.353  0.00  0.00    +0.030 C 
ATOM     14  C   LIG    1        4.036   5.782  -2.929  0.00  0.00    +0.002 C 
ATOM     15  C   LIG    1        2.821   5.514  -2.020  0.00  0.00    +0.000 C 
ATOM     16  C   LIG    1        3.080   5.945  -0.565  0.00  0.00    +0.002 C 
ATOM     17  C   LIG    1        4.373   5.308  -0.013  0.00  0.00    +0.030 C 
ATOM     18  N   LIG    1        6.862   4.903  -0.417  0.00  0.00    -0.313 N 
ATOM     19  C   LIG    1        6.989   3.585   0.030  0.00  0.00    +0.147 A 
ATOM     20  N   LIG    1        6.022   2.672   0.194  0.00  0.00    -0.196 NA
ENDROOT
BRANCH   1  21
ATOM     21  N   LIG    1        5.487   0.440   0.856  0.00  0.00    -0.268 N 
ATOM     22  H   LIG    1        5.892  -0.419   1.196  0.00  0.00    +0.156 HD
BRANCH  21  26
ATOM     23  C   LIG    1        1.327   0.188   0.367  0.00  0.00    +0.048 A 
ATOM     24  C   LIG    1        2.066  -0.916   0.821  0.00  0.00    +0.028 A 
ATOM     25  C   LIG    1        3.450  -0.826   0.982  0.00  0.00    +0.045 A 
ATOM     26  C   LIG    1        4.092   0.376   0.680  0.00  0.00    +0.125 A 
ATOM     27  N   LIG    1        3.399   1.456   0.229  0.00  0.00    -0.238 NA
ATOM     28  C   LIG    1        2.055   1.353   0.078  0.00  0.00    +0.136 A 
BRANCH  23  33
ATOM     29  C   LIG    1       -4.357  -0.065  -0.136  0.00  0.00    +0.105 C 
ATOM     30  N   LIG    1       -2.995   0.297   0.243  0.00  0.00    -0.302 NA
ATOM     31  C   LIG    1       -2.237   0.714  -0.935  0.00  0.00    +0.103 C 
ATOM     32  C   LIG    1       -0.806   1.142  -0.537  0.00  0.00    +0.120 C 
ATOM     33  N   LIG    1       -0.055   0.109   0.204  0.00  0.00    -0.326 N 
ATOM     34  C   LIG    1       -0.886  -0.463   1.282  0.00  0.00    +0.120 C 
ATOM     35  C   LIG    1       -2.313  -0.852   0.833  0.00  0.00    +0.103 C 
ENDBRANCH  23  33
ENDBRANCH  21  26
ENDBRANCH   1  21
TORSDOF 3
