REMARK  Name = DB15212
REMARK                            x       y       z     vdW  Elec       q    Type
REMARK                         _______ _______ _______ _____ _____    ______ ____
ROOT
ATOM      1  N   LIG    1        1.708   0.109   0.276  0.00  0.00    -0.281 N 
ENDROOT
BRANCH   1   2
ATOM      2  C   LIG    1        2.277  -0.650   1.283  0.00  0.00    +0.291 A 
ATOM      3  O   LIG    1        1.430  -1.309   2.135  0.00  0.00    -0.424 OA
ATOM      4  C   LIG    1        2.266  -1.945   2.998  0.00  0.00    +0.157 A 
ATOM      5  C   LIG    1        1.947  -2.773   4.079  0.00  0.00    +0.048 A 
ATOM      6  C   LIG    1        3.026  -3.296   4.797  0.00  0.00    +0.004 A 
ATOM      7  C   LIG    1        4.349  -3.001   4.446  0.00  0.00    +0.002 A 
ATOM      8  C   LIG    1        4.651  -2.169   3.361  0.00  0.00    +0.031 A 
ATOM      9  C   LIG    1        3.583  -1.634   2.626  0.00  0.00    +0.111 A 
ATOM     10  N   LIG    1        3.563  -0.806   1.539  0.00  0.00    -0.195 NA
ENDBRANCH   1   2
BRANCH   1  11
ATOM     11  C   LIG    1        0.260   0.173   0.034  0.00  0.00    +0.144 C 
BRANCH  11  16
ATOM     12  C   LIG    1       -2.087   3.153  -0.451  0.00  0.00    +0.122 A 
ATOM     13  C   LIG    1       -1.567   4.071   0.478  0.00  0.00    +0.046 A 
ATOM     14  C   LIG    1       -0.458   3.740   1.254  0.00  0.00    +0.004 A 
ATOM     15  C   LIG    1        0.148   2.493   1.111  0.00  0.00    +0.005 A 
ATOM     16  C   LIG    1       -0.339   1.573   0.175  0.00  0.00    -0.027 A 
ATOM     17  C   LIG    1       -1.466   1.908  -0.582  0.00  0.00    +0.050 A 
BRANCH  12  18
ATOM     18  O   LIG    1       -3.194   3.381  -1.251  0.00  0.00    -0.478 OA
BRANCH  18  19
ATOM     19  C   LIG    1       -3.894   4.639  -1.227  0.00  0.00    +0.281 C 
BRANCH  19  21
ATOM     20  C   LIG    1       -5.314   3.968  -3.323  0.00  0.00    +0.008 C 
ATOM     21  C   LIG    1       -5.298   4.423  -1.851  0.00  0.00    +0.053 C 
ENDBRANCH  19  21
BRANCH  19  22
ATOM     22  C   LIG    1       -3.094   5.762  -1.957  0.00  0.00    +0.346 C 
ATOM     23  O   LIG    1       -3.396   6.944  -1.673  0.00  0.00    -0.247 OA
BRANCH  22  24
ATOM     24  O   LIG    1       -2.205   5.445  -2.782  0.00  0.00    -0.478 OA
ATOM     25  H   LIG    1       -1.719   6.112  -3.226  0.00  0.00    +0.295 HD
ENDBRANCH  22  24
ENDBRANCH  19  22
ENDBRANCH  18  19
ENDBRANCH  12  18
ENDBRANCH  11  16
ENDBRANCH   1  11
BRANCH   1  26
ATOM     26  C   LIG    1        2.525   0.795  -0.731  0.00  0.00    +0.113 C 
BRANCH  26  27
ATOM     27  C   LIG    1        3.188  -0.151  -1.752  0.00  0.00    +0.060 C 
BRANCH  27  28
ATOM     28  C   LIG    1        3.908   0.594  -2.884  0.00  0.00    +0.230 C 
BRANCH  28  29
ATOM     29  O   LIG    1        4.514  -0.365  -3.746  0.00  0.00    -0.492 OA
BRANCH  29  30
ATOM     30  C   LIG    1        5.255   0.067  -4.829  0.00  0.00    +0.121 A 
ATOM     31  C   LIG    1        5.443   1.414  -5.173  0.00  0.00    +0.049 A 
ATOM     32  C   LIG    1        6.209   1.755  -6.285  0.00  0.00    +0.049 A 
ATOM     33  C   LIG    1        6.800   0.755  -7.072  0.00  0.00    +0.120 A 
ATOM     34  C   LIG    1        6.610  -0.582  -6.726  0.00  0.00    +0.049 A 
ATOM     35  C   LIG    1        5.844  -0.923  -5.615  0.00  0.00    +0.049 A 
BRANCH  33  36
ATOM     36  O   LIG    1        7.575   0.998  -8.191  0.00  0.00    -0.495 OA
ATOM     37  C   LIG    1        7.811   2.343  -8.593  0.00  0.00    +0.277 C 
ENDBRANCH  33  36
ENDBRANCH  29  30
ENDBRANCH  28  29
ENDBRANCH  27  28
ENDBRANCH  26  27
ENDBRANCH   1  26
TORSDOF 14
