REMARK  Name = DB15051
REMARK                            x       y       z     vdW  Elec       q    Type
REMARK                         _______ _______ _______ _____ _____    ______ ____
ROOT
ATOM      1  C   LIG    1       -0.019   0.037  -0.002  0.00  0.00    +0.000 C 
ENDROOT
BRANCH   1  11
ATOM      2  O   LIG    1       -0.585   1.654  -2.317  0.00  0.00    +0.000 OA
ATOM      3  C   LIG    1       -0.752   2.104  -1.183  0.00  0.00    +0.000 A 
ATOM      4  C   LIG    1       -1.246   3.498  -0.862  0.00  0.00    +0.000 A 
ATOM      5  C   LIG    1       -1.592   4.476  -1.802  0.00  0.00    +0.000 A 
ATOM      6  C   LIG    1       -2.037   5.731  -1.380  0.00  0.00    +0.000 A 
ATOM      7  C   LIG    1       -2.137   6.018  -0.018  0.00  0.00    +0.000 A 
ATOM      8  C   LIG    1       -1.793   5.051   0.927  0.00  0.00    +0.000 A 
ATOM      9  C   LIG    1       -1.350   3.800   0.497  0.00  0.00    +0.000 A 
ATOM     10 SE   LIG    1       -0.839   2.370   1.530  0.00  0.00    +0.000 Se
ATOM     11  N   LIG    1       -0.513   1.415  -0.040  0.00  0.00    +0.000 N 
ENDBRANCH   1  11
BRANCH   1  12
ATOM     12  C   LIG    1        1.520  -0.037   0.002  0.00  0.00    +0.000 C 
BRANCH  12  13
ATOM     13  N   LIG    1        2.014  -1.415   0.040  0.00  0.00    +0.000 N 
ATOM     14  C   LIG    1        2.254  -2.103   1.183  0.00  0.00    +0.000 A 
ATOM     15  O   LIG    1        2.088  -1.653   2.317  0.00  0.00    +0.000 OA
ATOM     16  C   LIG    1        2.750  -3.497   0.862  0.00  0.00    +0.000 A 
ATOM     17  C   LIG    1        3.099  -4.474   1.802  0.00  0.00    +0.000 A 
ATOM     18  C   LIG    1        3.545  -5.728   1.381  0.00  0.00    +0.000 A 
ATOM     19  C   LIG    1        3.645  -6.015   0.018  0.00  0.00    +0.000 A 
ATOM     20  C   LIG    1        3.299  -5.049  -0.927  0.00  0.00    +0.000 A 
ATOM     21  C   LIG    1        2.854  -3.799  -0.497  0.00  0.00    +0.000 A 
ATOM     22 SE   LIG    1        2.340  -2.369  -1.530  0.00  0.00    +0.000 Se
ENDBRANCH  12  13
ENDBRANCH   1  12
TORSDOF 3
