REMARK  Name = DB15227
REMARK                            x       y       z     vdW  Elec       q    Type
REMARK                         _______ _______ _______ _____ _____    ______ ____
ROOT
ATOM      1  N   LIG    1        1.427   0.007  -0.069  0.00  0.00    -0.272 N 
ATOM      2  C   LIG    1        2.299  -1.065   0.017  0.00  0.00    +0.167 A 
ATOM      3  N   LIG    1        2.025  -2.397  -0.014  0.00  0.00    -0.216 NA
ATOM      4  C   LIG    1        3.117  -3.202   0.100  0.00  0.00    +0.225 A 
ATOM      5  N   LIG    1        4.410  -2.793   0.238  0.00  0.00    -0.219 NA
ATOM      6  C   LIG    1        4.630  -1.448   0.263  0.00  0.00    +0.146 A 
ATOM      7  C   LIG    1        3.559  -0.549   0.148  0.00  0.00    +0.133 A 
ATOM      8  N   LIG    1        3.422   0.829   0.133  0.00  0.00    -0.256 N 
ATOM      9  C   LIG    1        2.114   1.182  -0.006  0.00  0.00    +0.336 A 
ATOM     10  O   LIG    1        1.653   2.325  -0.058  0.00  0.00    -0.246 OA
ENDROOT
BRANCH   1  14
ATOM     11  C   LIG    1       -2.838  -1.825  -1.786  0.00  0.00    +0.291 C 
ATOM     12  N   LIG    1       -1.885  -1.259  -0.996  0.00  0.00    -0.289 N 
ATOM     13  C   LIG    1       -0.543  -0.808  -1.408  0.00  0.00    +0.134 C 
ATOM     14  C   LIG    1       -0.043  -0.005  -0.201  0.00  0.00    +0.112 C 
ATOM     15  C   LIG    1       -0.728  -0.699   0.971  0.00  0.00    +0.046 C 
ATOM     16  C   LIG    1       -2.115  -1.058   0.441  0.00  0.00    +0.111 C 
ATOM     17  O   LIG    1       -3.938  -2.189  -1.368  0.00  0.00    -0.260 OA
BRANCH  11  20
ATOM     18  C   LIG    1       -2.076  -2.320  -5.835  0.00  0.00    +0.106 C 
ATOM     19  C   LIG    1       -2.296  -2.140  -4.393  0.00  0.00    -0.096 C 
ATOM     20  C   LIG    1       -2.495  -1.991  -3.197  0.00  0.00    -0.008 C 
ENDBRANCH  11  20
ENDBRANCH   1  14
BRANCH   8  21
ATOM     21  C   LIG    1        4.482   1.737   0.237  0.00  0.00    +0.052 A 
ATOM     22  C   LIG    1        4.826   2.259   1.486  0.00  0.00    +0.030 A 
ATOM     23  C   LIG    1        5.890   3.151   1.587  0.00  0.00    +0.048 A 
ATOM     24  C   LIG    1        6.616   3.508   0.444  0.00  0.00    +0.129 A 
ATOM     25  C   LIG    1        6.258   2.991  -0.801  0.00  0.00    +0.048 A 
ATOM     26  C   LIG    1        5.193   2.101  -0.909  0.00  0.00    +0.030 A 
BRANCH  24  27
ATOM     27  O   LIG    1        7.661   4.403   0.505  0.00  0.00    -0.456 OA
BRANCH  27  28
ATOM     28  C   LIG    1        8.684   4.251   1.419  0.00  0.00    +0.128 A 
ATOM     29  C   LIG    1        9.124   2.997   1.867  0.00  0.00    +0.046 A 
ATOM     30  C   LIG    1       10.178   2.909   2.773  0.00  0.00    +0.004 A 
ATOM     31  C   LIG    1       10.801   4.072   3.221  0.00  0.00    +0.000 A 
ATOM     32  C   LIG    1       10.381   5.321   2.769  0.00  0.00    +0.004 A 
ATOM     33  C   LIG    1        9.325   5.407   1.866  0.00  0.00    +0.046 A 
ENDBRANCH  27  28
ENDBRANCH  24  27
ENDBRANCH   8  21
BRANCH   6  34
ATOM     34  N   LIG    1        5.952  -1.031   0.406  0.00  0.00    -0.341 N 
ATOM     35  H   LIG    1        6.683  -1.724   0.485  0.00  0.00    +0.144 HD
ATOM     36  H   LIG    1        6.162  -0.043   0.427  0.00  0.00    +0.144 HD
ENDBRANCH   6  34
TORSDOF 6
