REMARK  Name = DB15316
REMARK                            x       y       z     vdW  Elec       q    Type
REMARK                         _______ _______ _______ _____ _____    ______ ____
ROOT
ATOM      1  S   LIG    1        1.997   0.247  -1.447  0.00  0.00    +0.110 S 
ATOM      2  O   LIG    1        1.716   0.875  -2.743  0.00  0.00    -0.147 OA
ATOM      3  O   LIG    1        2.491  -1.137  -1.471  0.00  0.00    -0.147 OA
ENDROOT
BRANCH   1   7
ATOM      4  C   LIG    1       -2.668   1.320   0.395  0.00  0.00    +0.321 A 
ATOM      5  N   LIG    1       -1.514   0.673   0.032  0.00  0.00    -0.159 N 
ATOM      6  N   LIG    1       -0.442   1.173  -0.613  0.00  0.00    -0.120 NA
ATOM      7  C   LIG    1        0.352   0.118  -0.683  0.00  0.00    +0.311 A 
ATOM      8  N   LIG    1       -0.079  -1.024  -0.167  0.00  0.00    -0.187 NA
ATOM      9  C   LIG    1       -1.300  -0.678   0.309  0.00  0.00    +0.199 A 
ATOM     10  C   LIG    1       -2.319  -1.378   0.983  0.00  0.00    +0.186 A 
ATOM     11  F   LIG    1       -2.196  -2.689   1.292  0.00  0.00    -0.200 F 
ATOM     12  C   LIG    1       -3.472  -0.664   1.327  0.00  0.00    +0.158 A 
ATOM     13  N   LIG    1       -3.661   0.652   1.048  0.00  0.00    -0.200 NA
BRANCH   4  15
ATOM     14  C   LIG    1       -3.984   3.349   0.467  0.00  0.00    +0.280 C 
ATOM     15  O   LIG    1       -2.796   2.662   0.084  0.00  0.00    -0.466 OA
ENDBRANCH   4  15
ENDBRANCH   1   7
BRANCH   1  16
ATOM     16  N   LIG    1        2.791   1.194  -0.479  0.00  0.00    -0.208 N 
ATOM     17  H   LIG    1        2.831   2.162  -0.652  0.00  0.00    +0.174 HD
BRANCH  16  18
ATOM     18  C   LIG    1        3.428   0.657   0.611  0.00  0.00    +0.118 A 
ATOM     19  C   LIG    1        4.738   0.153   0.508  0.00  0.00    +0.148 A 
ATOM     20  F   LIG    1        5.397   0.181  -0.676  0.00  0.00    -0.203 F 
ATOM     21  C   LIG    1        5.387  -0.389   1.618  0.00  0.00    +0.040 A 
ATOM     22  C   LIG    1        4.745  -0.431   2.853  0.00  0.00    +0.006 A 
ATOM     23  C   LIG    1        3.453   0.071   2.977  0.00  0.00    +0.040 A 
ATOM     24  C   LIG    1        2.801   0.614   1.869  0.00  0.00    +0.148 A 
ATOM     25  F   LIG    1        1.547   1.103   2.035  0.00  0.00    -0.203 F 
ENDBRANCH  16  18
ENDBRANCH   1  16
TORSDOF 4
