REMARK  Name = DB15661
REMARK                            x       y       z     vdW  Elec       q    Type
REMARK                         _______ _______ _______ _____ _____    ______ ____
ROOT
ATOM      1  C   LIG    1       -1.417  -0.040  -1.546  0.00  0.00    +0.195 C 
ATOM      2  C   LIG    1       -0.694  -1.140  -0.768  0.00  0.00    +0.179 C 
ATOM      3  C   LIG    1       -0.094  -0.417   0.452  0.00  0.00    +0.189 C 
ATOM      4  O   LIG    1       -0.859   0.783   0.546  0.00  0.00    -0.345 OA
ATOM      5  C   LIG    1       -1.909   0.822  -0.379  0.00  0.00    +0.255 C 
ENDROOT
BRANCH   5   6
ATOM      6  N   LIG    1       -2.335   2.192  -0.685  0.00  0.00    -0.270 N 
ATOM      7  C   LIG    1       -1.472   3.245  -0.475  0.00  0.00    +0.097 A 
ATOM      8  C   LIG    1       -1.773   4.507  -0.813  0.00  0.00    +0.066 A 
ATOM      9  C   LIG    1       -3.053   4.739  -1.418  0.00  0.00    +0.157 A 
ATOM     10  N   LIG    1       -3.869   3.754  -1.620  0.00  0.00    -0.174 NA
ATOM     11  C   LIG    1       -3.581   2.419  -1.258  0.00  0.00    +0.352 A 
ATOM     12  O   LIG    1       -4.364   1.479  -1.401  0.00  0.00    -0.244 OA
BRANCH   9  13
ATOM     13  N   LIG    1       -3.328   6.023  -1.746  0.00  0.00    -0.251 N 
ATOM     14  H   LIG    1       -2.735   6.830  -1.618  0.00  0.00    +0.196 HD
BRANCH  13  15
ATOM     15  O   LIG    1       -4.517   6.338  -2.416  0.00  0.00    -0.288 OA
ATOM     16  H   LIG    1       -5.070   6.706  -1.722  0.00  0.00    +0.244 HD
ENDBRANCH  13  15
ENDBRANCH   9  13
ENDBRANCH   5   6
BRANCH   1  17
ATOM     17  O   LIG    1       -2.450  -0.451  -2.422  0.00  0.00    -0.385 OA
ATOM     18  H   LIG    1       -2.055  -0.904  -3.171  0.00  0.00    +0.210 HD
ENDBRANCH   1  17
BRANCH   2  19
ATOM     19  O   LIG    1       -1.541  -2.208  -0.374  0.00  0.00    -0.386 OA
ATOM     20  H   LIG    1       -2.267  -1.846   0.140  0.00  0.00    +0.210 HD
ENDBRANCH   2  19
BRANCH   3  21
ATOM     21  C   LIG    1        1.379   0.027   0.336  0.00  0.00    +0.266 C 
BRANCH  21  22
ATOM     22  O   LIG    1        1.654   0.658  -0.910  0.00  0.00    -0.462 OA
BRANCH  22  23
ATOM     23  C   LIG    1        2.886   1.144  -1.185  0.00  0.00    +0.310 C 
ATOM     24  O   LIG    1        3.863   1.073  -0.436  0.00  0.00    -0.251 OA
BRANCH  23  25
ATOM     25  C   LIG    1        3.002   1.849  -2.553  0.00  0.00    +0.092 C 
ATOM     26  C   LIG    1        1.873   1.503  -3.552  0.00  0.00    +0.019 C 
ATOM     27  C   LIG    1        3.122   3.375  -2.366  0.00  0.00    +0.019 C 
ENDBRANCH  23  25
ENDBRANCH  22  23
ENDBRANCH  21  22
ENDBRANCH   3  21
TORSDOF 9
