REMARK  Name = DB15534
REMARK                            x       y       z     vdW  Elec       q    Type
REMARK                         _______ _______ _______ _____ _____    ______ ____
ROOT
ATOM      1  C   LIG    1        1.394   0.009  -0.220  0.00  0.00    +0.204 A 
ATOM      2  C   LIG    1        2.103   0.839  -1.097  0.00  0.00    +0.173 A 
ATOM      3  C   LIG    1        3.508   0.953  -1.014  0.00  0.00    +0.031 A 
ATOM      4  C   LIG    1        4.253   1.912  -1.912  0.00  0.00    -0.009 A 
ATOM      5  C   LIG    1        5.428   1.434  -2.682  0.00  0.00    -0.016 A 
ATOM      6  C   LIG    1        5.726  -0.085  -2.613  0.00  0.00    +0.104 C 
ATOM      7  C   LIG    1        6.374  -0.489  -1.271  0.00  0.00    +0.032 C 
ATOM      8  C   LIG    1        5.716   0.138  -0.022  0.00  0.00    +0.038 C 
ATOM      9  C   LIG    1        6.266   2.193  -3.437  0.00  0.00    +0.060 A 
ATOM     10  C   LIG    1        6.331   3.606  -3.785  0.00  0.00    +0.220 A 
ATOM     11  O   LIG    1        7.294   3.983  -4.461  0.00  0.00    -0.284 OA
ATOM     12  C   LIG    1        5.293   4.556  -3.376  0.00  0.00    +0.164 A 
ATOM     13  C   LIG    1        4.215   4.376  -2.593  0.00  0.00    +0.050 A 
ATOM     14  C   LIG    1        3.772   3.182  -1.900  0.00  0.00    +0.012 A 
ATOM     15  C   LIG    1        4.190   0.153  -0.066  0.00  0.00    -0.032 A 
ATOM     16  C   LIG    1        3.464  -0.683   0.787  0.00  0.00    +0.054 A 
ATOM     17  C   LIG    1        2.067  -0.759   0.732  0.00  0.00    +0.165 A 
ENDROOT
BRANCH   6  18
ATOM     18  N   LIG    1        6.458  -0.672  -3.749  0.00  0.00    -0.309 N 
ATOM     19  H   LIG    1        7.465  -0.613  -3.701  0.00  0.00    +0.149 HD
ATOM     20  C   LIG    1        5.908  -1.104  -4.898  0.00  0.00    +0.210 C 
ATOM     21  C   LIG    1        6.872  -1.624  -5.959  0.00  0.00    +0.109 C 
ATOM     22  O   LIG    1        4.699  -1.090  -5.130  0.00  0.00    -0.276 OA
ENDBRANCH   6  18
BRANCH   1  24
ATOM     23  C   LIG    1       -0.668   0.917   0.427  0.00  0.00    +0.277 C 
ATOM     24  O   LIG    1        0.026  -0.076  -0.315  0.00  0.00    -0.488 OA
ENDBRANCH   1  24
BRANCH   2  25
ATOM     25  O   LIG    1        1.402   1.537  -2.053  0.00  0.00    -0.491 OA
ATOM     26  C   LIG    1        1.150   0.799  -3.241  0.00  0.00    +0.277 C 
ENDBRANCH   2  25
BRANCH  12  27
ATOM     27  O   LIG    1        5.464   5.808  -3.889  0.00  0.00    -0.503 OA
ATOM     28  H   LIG    1        4.753   6.377  -3.589  0.00  0.00    +0.292 HD
ENDBRANCH  12  27
BRANCH  17  29
ATOM     29  O   LIG    1        1.300  -1.562   1.556  0.00  0.00    -0.491 OA
ATOM     30  C   LIG    1        1.939  -2.361   2.546  0.00  0.00    +0.277 C 
ENDBRANCH  17  29
TORSDOF 5
