REMARK  Name = DB15008
REMARK                            x       y       z     vdW  Elec       q    Type
REMARK                         _______ _______ _______ _____ _____    ______ ____
ROOT
ATOM      1  C   ARG A  7        1.592   0.722   1.353  0.00  0.00    +0.209 C 
ATOM      2  N   ARG A  8        2.208   0.341   0.296  0.00  0.00    -0.240 NA
ENDROOT
BRANCH   1   3
ATOM      3  O   ARG A  7        2.263   1.522   2.244  0.00  0.00    -0.494 OA
ATOM      4  H   ARG A  7        3.154   1.686   1.929  0.00  0.00    +0.293 HD
ENDBRANCH   1   3
BRANCH   2   5
ATOM      5  CA  ARG A  8        1.604  -0.531  -0.721  0.00  0.00    +0.193 C 
BRANCH   5   6
ATOM      6  C   ARG A  8        1.774   0.037  -2.167  0.00  0.00    +0.209 C 
ATOM      7  N   ARG A  9        1.240  -0.416  -3.239  0.00  0.00    -0.240 NA
BRANCH   6   8
ATOM      8  O   ARG A  8        2.630   1.107  -2.285  0.00  0.00    -0.494 OA
ATOM      9  H   ARG A  8        2.972   1.350  -1.422  0.00  0.00    +0.293 HD
ENDBRANCH   6   8
BRANCH   7  10
ATOM     10  CA  ARG A  9        0.293  -1.533  -3.273  0.00  0.00    +0.193 C 
BRANCH  10  11
ATOM     11  C   ARG A  9       -0.976  -1.176  -4.073  0.00  0.00    +0.209 C 
ATOM     12  N   CYS A 10       -2.076  -1.779  -3.817  0.00  0.00    -0.239 NA
BRANCH  12  13
ATOM     13  CA  CYS A 10       -3.271  -1.607  -4.691  0.00  0.00    +0.205 C 
ATOM     14  C   CYS A 10       -3.177  -2.515  -5.964  0.00  0.00    +0.239 C 
ATOM     15  O   CYS A 10       -2.447  -2.029  -6.853  0.00  0.00    -0.273 OA
ATOM     16  N   GLN A 11       -3.870  -3.662  -5.924  0.00  0.00    -0.302 N 
ATOM     17  H   GLN A 11       -4.173  -4.051  -5.072  0.00  0.00    +0.150 HD
ATOM     18  CA  GLN A 11       -4.160  -4.313  -7.210  0.00  0.00    +0.158 C 
ATOM     19  C   GLN A 11       -4.804  -5.710  -6.938  0.00  0.00    +0.204 C 
ATOM     20  N   CYS A 12       -5.806  -6.053  -6.197  0.00  0.00    -0.240 NA
ATOM     21  CA  CYS A 12       -6.625  -5.127  -5.356  0.00  0.00    +0.205 C 
ATOM     22  CB  CYS A 12       -6.306  -5.332  -3.849  0.00  0.00    +0.117 C 
ATOM     23  SG  CYS A 12       -6.554  -3.891  -2.766  0.00  0.00    -0.090 S 
ATOM     24  SG  CYS A 10       -4.689  -3.065  -2.595  0.00  0.00    -0.090 S 
ATOM     25  CB  CYS A 10       -4.593  -1.765  -3.871  0.00  0.00    +0.117 C 
BRANCH  21  26
ATOM     26  C   CYS A 12       -8.128  -5.353  -5.683  0.00  0.00    +0.239 C 
ATOM     27  O   CYS A 12       -8.571  -6.450  -5.280  0.00  0.00    -0.273 OA
ATOM     28  N   ARG A 13       -8.709  -4.348  -6.361  0.00  0.00    -0.302 N 
ATOM     29  H   ARG A 13       -8.177  -3.646  -6.800  0.00  0.00    +0.150 HD
BRANCH  28  30
ATOM     30  CA  ARG A 13      -10.174  -4.350  -6.415  0.00  0.00    +0.158 C 
BRANCH  30  31
ATOM     31  C   ARG A 13      -10.741  -3.454  -5.290  0.00  0.00    +0.204 C 
ATOM     32  N   ARG A 14      -10.919  -2.192  -5.441  0.00  0.00    -0.240 NA
BRANCH  31  33
ATOM     33  O   ARG A 13      -11.029  -4.155  -4.138  0.00  0.00    -0.494 OA
ATOM     34  H   ARG A 13      -10.754  -5.069  -4.243  0.00  0.00    +0.293 HD
ENDBRANCH  31  33
BRANCH  32  35
ATOM     35  CA  ARG A 14      -11.464  -1.350  -4.376  0.00  0.00    +0.193 C 
BRANCH  35  36
ATOM     36  C   ARG A 14      -10.395  -0.310  -3.990  0.00  0.00    +0.209 C 
ATOM     37  N   LYS A 15      -10.407   0.893  -4.437  0.00  0.00    -0.240 NA
BRANCH  36  38
ATOM     38  O   ARG A 14       -9.463  -0.797  -3.099  0.00  0.00    -0.494 OA
ATOM     39  H   ARG A 14       -9.587  -1.741  -2.980  0.00  0.00    +0.293 HD
ENDBRANCH  36  38
BRANCH  37  40
ATOM     40  CA  LYS A 15       -9.380   1.886  -4.005  0.00  0.00    +0.194 C 
BRANCH  40  41
ATOM     41  C   LYS A 15       -7.991   1.615  -4.661  0.00  0.00    +0.238 C 
ATOM     42  O   LYS A 15       -7.060   1.516  -3.852  0.00  0.00    -0.273 OA
ATOM     43  N   ASN A 16       -7.949   1.529  -5.990  0.00  0.00    -0.300 N 
ATOM     44  H   ASN A 16       -8.606   1.934  -6.601  0.00  0.00    +0.150 HD
BRANCH  43  45
ATOM     45  CA  ASN A 16       -6.801   0.757  -6.406  0.00  0.00    +0.191 C 
BRANCH  45  46
ATOM     46  C   ASN A 16       -7.377  -0.634  -6.802  0.00  0.00    +0.326 C 
ATOM     47  O   ASN A 16       -7.460  -1.546  -5.984  0.00  0.00    -0.249 OA
BRANCH  46  48
ATOM     48  OXT ASN A 16       -7.797  -0.713  -8.100  0.00  0.00    -0.479 OA
ATOM     49  HXT ASN A 16       -8.146  -1.583  -8.304  0.00  0.00    +0.295 HD
ENDBRANCH  46  48
ENDBRANCH  45  46
BRANCH  45  50
ATOM     50  CB  ASN A 16       -6.059   1.504  -7.564  0.00  0.00    +0.128 C 
BRANCH  50  51
ATOM     51  CG  ASN A 16       -4.776   0.813  -8.031  0.00  0.00    +0.182 C 
ATOM     52  ND2 ASN A 16       -3.682   0.917  -7.410  0.00  0.00    -0.271 NA
ATOM     53  HD2 ASN A 16       -2.934   0.392  -7.838  0.00  0.00    +0.190 HD
BRANCH  51  54
ATOM     54  OD1 ASN A 16       -4.893   0.063  -9.173  0.00  0.00    -0.496 OA
ATOM     55  HD1 ASN A 16       -4.055  -0.359  -9.373  0.00  0.00    +0.293 HD
ENDBRANCH  51  54
ENDBRANCH  50  51
ENDBRANCH  45  50
ENDBRANCH  43  45
ENDBRANCH  40  41
BRANCH  40  56
ATOM     56  CB  LYS A 15       -9.899   3.320  -4.289  0.00  0.00    +0.036 C 
BRANCH  56  57
ATOM     57  CG  LYS A 15       -9.122   4.432  -3.557  0.00  0.00    +0.004 C 
BRANCH  57  58
ATOM     58  CD  LYS A 15       -9.693   5.841  -3.790  0.00  0.00    +0.015 C 
BRANCH  58  59
ATOM     59  CE  LYS A 15       -9.500   6.355  -5.228  0.00  0.00    +0.077 C 
BRANCH  59  60
ATOM     60  NZ  LYS A 15      -10.030   7.699  -5.358  0.00  0.00    -0.330 NA
ATOM     61  HZ1 LYS A 15      -11.027   7.683  -5.194  0.00  0.00    +0.118 HD
ATOM     62  HZ2 LYS A 15       -9.903   8.019  -6.308  0.00  0.00    +0.118 HD
ENDBRANCH  59  60
ENDBRANCH  58  59
ENDBRANCH  57  58
ENDBRANCH  56  57
ENDBRANCH  40  56
ENDBRANCH  37  40
ENDBRANCH  35  36
BRANCH  35  63
ATOM     63  CB  ARG A 14      -12.813  -0.750  -4.881  0.00  0.00    +0.039 C 
BRANCH  63  64
ATOM     64  CG  ARG A 14      -13.546   0.235  -3.938  0.00  0.00    +0.039 C 
BRANCH  64  65
ATOM     65  CD  ARG A 14      -13.784  -0.293  -2.507  0.00  0.00    +0.196 C 
BRANCH  65  66
ATOM     66  NE  ARG A 14      -14.538   0.667  -1.700  0.00  0.00    -0.276 N 
ATOM     67  HE  ARG A 14      -15.504   0.750  -1.980  0.00  0.00    +0.258 HD
BRANCH  66  68
ATOM     68  CZ  ARG A 14      -13.943   1.842  -1.148  0.00  0.00    +0.376 C 
ATOM     69  NH1 ARG A 14      -14.641   2.787  -0.694  0.00  0.00    -0.130 NA
ATOM     70  HH1 ARG A 14      -15.633   2.615  -0.769  0.00  0.00    +0.306 HD
BRANCH  68  71
ATOM     71  NH2 ARG A 14      -12.528   1.891  -1.129  0.00  0.00    -0.289 N 
ATOM     72 HH21 ARG A 14      -11.976   1.247  -1.676  0.00  0.00    +0.255 HD
ATOM     73 HH22 ARG A 14      -12.042   2.736  -0.864  0.00  0.00    +0.255 HD
ENDBRANCH  68  71
ENDBRANCH  66  68
ENDBRANCH  65  66
ENDBRANCH  64  65
ENDBRANCH  63  64
ENDBRANCH  35  63
ENDBRANCH  32  35
ENDBRANCH  30  31
BRANCH  30  74
ATOM     74  CB  ARG A 13      -10.639  -3.896  -7.838  0.00  0.00    +0.035 C 
BRANCH  74  75
ATOM     75  CG  ARG A 13      -12.167  -3.880  -8.150  0.00  0.00    +0.039 C 
BRANCH  75  76
ATOM     76  CD  ARG A 13      -12.892  -5.247  -8.207  0.00  0.00    +0.196 C 
BRANCH  76  77
ATOM     77  NE  ARG A 13      -12.247  -6.137  -9.172  0.00  0.00    -0.276 N 
ATOM     78  HE  ARG A 13      -11.240  -6.059  -9.169  0.00  0.00    +0.258 HD
BRANCH  77  79
ATOM     79  CZ  ARG A 13      -12.781  -7.419  -9.491  0.00  0.00    +0.376 C 
ATOM     80  NH1 ARG A 13      -12.085  -8.308 -10.048  0.00  0.00    -0.130 NA
ATOM     81  HH1 ARG A 13      -11.136  -8.011 -10.226  0.00  0.00    +0.306 HD
BRANCH  79  82
ATOM     82  NH2 ARG A 13      -14.140  -7.639  -9.162  0.00  0.00    -0.289 N 
ATOM     83 HH21 ARG A 13      -14.654  -6.996  -8.578  0.00  0.00    +0.255 HD
ATOM     84 HH22 ARG A 13      -14.567  -8.547  -9.272  0.00  0.00    +0.255 HD
ENDBRANCH  79  82
ENDBRANCH  77  79
ENDBRANCH  76  77
ENDBRANCH  75  76
ENDBRANCH  74  75
ENDBRANCH  30  74
ENDBRANCH  28  30
ENDBRANCH  21  26
BRANCH  19  85
ATOM     85  O   GLN A 11       -4.172  -6.704  -7.644  0.00  0.00    -0.494 OA
ATOM     86  H   GLN A 11       -4.596  -7.545  -7.461  0.00  0.00    +0.293 HD
ENDBRANCH  19  85
BRANCH  18  87
ATOM     87  CB  GLN A 11       -5.098  -3.457  -8.136  0.00  0.00    +0.041 C 
BRANCH  87  88
ATOM     88  CG  GLN A 11       -5.485  -4.025  -9.542  0.00  0.00    +0.097 C 
BRANCH  88  89
ATOM     89  CD  GLN A 11       -6.932  -4.509  -9.611  0.00  0.00    +0.180 C 
ATOM     90  NE2 GLN A 11       -7.250  -5.729  -9.564  0.00  0.00    -0.271 NA
ATOM     91  HE2 GLN A 11       -8.247  -5.878  -9.611  0.00  0.00    +0.190 HD
BRANCH  89  92
ATOM     92  OE1 GLN A 11       -7.867  -3.514  -9.728  0.00  0.00    -0.496 OA
ATOM     93  HE1 GLN A 11       -8.749  -3.892  -9.721  0.00  0.00    +0.293 HD
ENDBRANCH  89  92
ENDBRANCH  88  89
ENDBRANCH  87  88
ENDBRANCH  18  87
ENDBRANCH  12  13
BRANCH  11  94
ATOM     94  O   ARG A  9       -0.805  -0.265  -5.096  0.00  0.00    -0.494 OA
ATOM     95  H   ARG A  9        0.097   0.062  -5.092  0.00  0.00    +0.293 HD
ENDBRANCH  11  94
ENDBRANCH  10  11
BRANCH  10  96
ATOM     96  CB  ARG A  9        0.989  -2.788  -3.879  0.00  0.00    +0.039 C 
BRANCH  96  97
ATOM     97  CG  ARG A  9        1.466  -2.686  -5.345  0.00  0.00    +0.039 C 
BRANCH  97  98
ATOM     98  CD  ARG A  9        2.202  -3.958  -5.810  0.00  0.00    +0.196 C 
BRANCH  98  99
ATOM     99  NE  ARG A  9        2.624  -3.849  -7.207  0.00  0.00    -0.276 N 
ATOM    100  HE  ARG A  9        1.843  -3.821  -7.847  0.00  0.00    +0.258 HD
BRANCH  99 101
ATOM    101  CZ  ARG A  9        3.773  -3.100  -7.599  0.00  0.00    +0.376 C 
ATOM    102  NH1 ARG A  9        3.927  -2.687  -8.779  0.00  0.00    -0.130 NA
ATOM    103  HH1 ARG A  9        3.158  -2.936  -9.384  0.00  0.00    +0.306 HD
BRANCH 101 104
ATOM    104  NH2 ARG A  9        4.743  -2.859  -6.597  0.00  0.00    -0.289 N 
ATOM    105 HH21 ARG A  9        4.661  -3.239  -5.666  0.00  0.00    +0.255 HD
ATOM    106 HH22 ARG A  9        5.603  -2.365  -6.788  0.00  0.00    +0.255 HD
ENDBRANCH 101 104
ENDBRANCH  99 101
ENDBRANCH  98  99
ENDBRANCH  97  98
ENDBRANCH  96  97
ENDBRANCH  10  96
ENDBRANCH   7  10
ENDBRANCH   5   6
BRANCH   5 107
ATOM    107  CB  ARG A  8        2.229  -1.948  -0.546  0.00  0.00    +0.039 C 
BRANCH 107 108
ATOM    108  CG  ARG A  8        3.725  -2.090  -0.924  0.00  0.00    +0.039 C 
BRANCH 108 109
ATOM    109  CD  ARG A  8        4.338  -3.482  -0.658  0.00  0.00    +0.196 C 
BRANCH 109 110
ATOM    110  NE  ARG A  8        3.816  -4.511  -1.562  0.00  0.00    -0.276 N 
ATOM    111  HE  ARG A  8        3.995  -4.312  -2.536  0.00  0.00    +0.258 HD
BRANCH 110 112
ATOM    112  CZ  ARG A  8        2.657  -5.295  -1.280  0.00  0.00    +0.376 C 
ATOM    113  NH1 ARG A  8        2.040  -5.915  -2.185  0.00  0.00    -0.130 NA
ATOM    114  HH1 ARG A  8        2.444  -5.788  -3.102  0.00  0.00    +0.306 HD
BRANCH 112 115
ATOM    115  NH2 ARG A  8        2.247  -5.357   0.072  0.00  0.00    -0.289 N 
ATOM    116 HH21 ARG A  8        2.801  -4.965   0.819  0.00  0.00    +0.255 HD
ATOM    117 HH22 ARG A  8        1.484  -5.949   0.370  0.00  0.00    +0.255 HD
ENDBRANCH 112 115
ENDBRANCH 110 112
ENDBRANCH 109 110
ENDBRANCH 108 109
ENDBRANCH 107 108
ENDBRANCH   5 107
ENDBRANCH   2   5
BRANCH   1 118
ATOM    118  CA  ARG A  7        0.127   0.396   1.744  0.00  0.00    +0.193 C 
BRANCH 118 120
ATOM    119  C   ARG A  6       -1.750   1.062   0.390  0.00  0.00    +0.209 C 
ATOM    120  N   ARG A  7       -0.740   1.382   1.109  0.00  0.00    -0.240 NA
BRANCH 119 121
ATOM    121  O   ARG A  6       -2.109  -0.228   0.064  0.00  0.00    -0.494 OA
ATOM    122  H   ARG A  6       -2.884  -0.218  -0.504  0.00  0.00    +0.293 HD
ENDBRANCH 119 121
BRANCH 119 123
ATOM    123  CA  ARG A  6       -2.710   2.131  -0.161  0.00  0.00    +0.193 C 
BRANCH 123 125
ATOM    124  C   ARG A  5       -3.021   2.261  -2.543  0.00  0.00    +0.209 C 
ATOM    125  N   ARG A  6       -2.284   2.467  -1.514  0.00  0.00    -0.240 NA
BRANCH 124 126
ATOM    126  O   ARG A  5       -4.219   1.583  -2.504  0.00  0.00    -0.494 OA
ATOM    127  H   ARG A  5       -4.614   1.554  -3.379  0.00  0.00    +0.293 HD
ENDBRANCH 124 126
BRANCH 124 128
ATOM    128  CA  ARG A  5       -2.593   2.746  -3.954  0.00  0.00    +0.193 C 
BRANCH 128 130
ATOM    129  C   ARG A  4       -0.407   3.756  -4.086  0.00  0.00    +0.209 C 
ATOM    130  N   ARG A  5       -1.659   3.874  -3.856  0.00  0.00    -0.240 NA
BRANCH 129 131
ATOM    131  O   ARG A  4        0.226   2.594  -4.469  0.00  0.00    -0.494 OA
ATOM    132  H   ARG A  4        1.168   2.752  -4.564  0.00  0.00    +0.293 HD
ENDBRANCH 129 131
BRANCH 129 133
ATOM    133  CA  ARG A  4        0.513   4.968  -3.874  0.00  0.00    +0.193 C 
BRANCH 133 135
ATOM    134  C   ARG A  3        1.262   6.200  -5.787  0.00  0.00    +0.209 C 
ATOM    135  N   ARG A  4        1.377   5.166  -5.040  0.00  0.00    -0.240 NA
BRANCH 134 136
ATOM    136  O   ARG A  3        0.273   7.156  -5.666  0.00  0.00    -0.494 OA
ATOM    137  H   ARG A  3        0.402   7.843  -6.324  0.00  0.00    +0.293 HD
ENDBRANCH 134 136
BRANCH 134 138
ATOM    138  CA  ARG A  3        2.302   6.485  -6.883  0.00  0.00    +0.193 C 
BRANCH 138 140
ATOM    139  C   ARG A  2        4.317   7.589  -6.173  0.00  0.00    +0.209 C 
ATOM    140  N   ARG A  3        3.069   7.652  -6.451  0.00  0.00    -0.240 NA
BRANCH 139 141
ATOM    141  O   ARG A  2        5.108   6.479  -6.400  0.00  0.00    -0.494 OA
ATOM    142  H   ARG A  2        4.586   5.782  -6.802  0.00  0.00    +0.293 HD
ENDBRANCH 139 141
BRANCH 139 143
ATOM    143  CA  ARG A  2        4.997   8.803  -5.487  0.00  0.00    +0.193 C 
BRANCH 143 145
ATOM    144  C   ARG A  1        7.374   9.162  -5.596  0.00  0.00    +0.209 C 
ATOM    145  N   ARG A  2        6.384   8.525  -5.096  0.00  0.00    -0.240 NA
BRANCH 144 146
ATOM    146  O   ARG A  1        7.273  10.167  -6.537  0.00  0.00    -0.494 OA
ATOM    147  H   ARG A  1        6.351  10.326  -6.748  0.00  0.00    +0.293 HD
ENDBRANCH 144 146
BRANCH 144 148
ATOM    148  CA  ARG A  1        8.812   8.810  -5.173  0.00  0.00    +0.193 C 
BRANCH 148 151
ATOM    149  C   UNK A  0       10.588  11.308  -2.918  0.00  0.00    +0.108 C 
ATOM    150  C   UNK A  0        9.907  10.060  -3.442  0.00  0.00    +0.180 C 
ATOM    151  N   ARG A  1        9.463  10.009  -4.641  0.00  0.00    -0.242 NA
BRANCH 150 152
ATOM    152  O   UNK A  0        9.841   9.043  -2.518  0.00  0.00    -0.496 OA
ATOM    153  H   UNK A  0       10.249   9.320  -1.694  0.00  0.00    +0.293 HD
ENDBRANCH 150 152
ENDBRANCH 148 151
BRANCH 148 154
ATOM    154  CB  ARG A  1        9.656   8.268  -6.359  0.00  0.00    +0.039 C 
BRANCH 154 155
ATOM    155  CG  ARG A  1        9.170   6.917  -6.935  0.00  0.00    +0.039 C 
BRANCH 155 156
ATOM    156  CD  ARG A  1        9.962   6.398  -8.156  0.00  0.00    +0.196 C 
BRANCH 156 157
ATOM    157  NE  ARG A  1       11.342   6.032  -7.825  0.00  0.00    -0.276 N 
ATOM    158  HE  ARG A  1       11.404   5.303  -7.129  0.00  0.00    +0.258 HD
BRANCH 157 159
ATOM    159  CZ  ARG A  1       12.438   6.943  -7.889  0.00  0.00    +0.376 C 
ATOM    160  NH1 ARG A  1       13.526   6.714  -7.299  0.00  0.00    -0.130 NA
ATOM    161  HH1 ARG A  1       13.522   5.841  -6.791  0.00  0.00    +0.306 HD
BRANCH 159 162
ATOM    162  NH2 ARG A  1       12.247   8.112  -8.664  0.00  0.00    -0.289 N 
ATOM    163 HH21 ARG A  1       11.339   8.373  -9.017  0.00  0.00    +0.255 HD
ATOM    164 HH22 ARG A  1       12.942   8.844  -8.694  0.00  0.00    +0.255 HD
ENDBRANCH 159 162
ENDBRANCH 157 159
ENDBRANCH 156 157
ENDBRANCH 155 156
ENDBRANCH 154 155
ENDBRANCH 148 154
ENDBRANCH 144 148
ENDBRANCH 143 145
BRANCH 143 165
ATOM    165  CB  ARG A  2        4.207   9.262  -4.223  0.00  0.00    +0.039 C 
BRANCH 165 166
ATOM    166  CG  ARG A  2        4.129   8.232  -3.064  0.00  0.00    +0.039 C 
BRANCH 166 167
ATOM    167  CD  ARG A  2        3.051   8.537  -2.008  0.00  0.00    +0.196 C 
BRANCH 167 168
ATOM    168  NE  ARG A  2        1.716   8.399  -2.585  0.00  0.00    -0.276 N 
ATOM    169  HE  ARG A  2        1.635   7.733  -3.341  0.00  0.00    +0.258 HD
BRANCH 168 170
ATOM    170  CZ  ARG A  2        0.549   8.678  -1.823  0.00  0.00    +0.376 C 
ATOM    171  NH1 ARG A  2        0.530   9.170  -0.660  0.00  0.00    -0.130 NA
ATOM    172  HH1 ARG A  2        1.454   9.363  -0.301  0.00  0.00    +0.306 HD
BRANCH 170 173
ATOM    173  NH2 ARG A  2       -0.631   8.331  -2.513  0.00  0.00    -0.289 N 
ATOM    174 HH21 ARG A  2       -0.616   7.867  -3.409  0.00  0.00    +0.255 HD
ATOM    175 HH22 ARG A  2       -1.544   8.426  -2.093  0.00  0.00    +0.255 HD
ENDBRANCH 170 173
ENDBRANCH 168 170
ENDBRANCH 167 168
ENDBRANCH 166 167
ENDBRANCH 165 166
ENDBRANCH 143 165
ENDBRANCH 139 143
ENDBRANCH 138 140
BRANCH 138 176
ATOM    176  CB  ARG A  3        1.637   6.768  -8.257  0.00  0.00    +0.039 C 
BRANCH 176 177
ATOM    177  CG  ARG A  3        2.636   6.896  -9.428  0.00  0.00    +0.039 C 
BRANCH 177 178
ATOM    178  CD  ARG A  3        1.994   7.033 -10.826  0.00  0.00    +0.196 C 
BRANCH 178 179
ATOM    179  NE  ARG A  3        1.250   8.285 -10.991  0.00  0.00    -0.276 N 
ATOM    180  HE  ARG A  3        1.828   9.107 -10.885  0.00  0.00    +0.258 HD
BRANCH 179 181
ATOM    181  CZ  ARG A  3       -0.129   8.433 -10.652  0.00  0.00    +0.376 C 
ATOM    182  NH1 ARG A  3       -0.649   9.564 -10.470  0.00  0.00    -0.130 NA
ATOM    183  HH1 ARG A  3        0.006  10.324 -10.583  0.00  0.00    +0.306 HD
BRANCH 181 184
ATOM    184  NH2 ARG A  3       -0.889   7.244 -10.552  0.00  0.00    -0.289 N 
ATOM    185 HH21 ARG A  3       -0.532   6.361 -10.886  0.00  0.00    +0.255 HD
ATOM    186 HH22 ARG A  3       -1.891   7.275 -10.435  0.00  0.00    +0.255 HD
ENDBRANCH 181 184
ENDBRANCH 179 181
ENDBRANCH 178 179
ENDBRANCH 177 178
ENDBRANCH 176 177
ENDBRANCH 138 176
ENDBRANCH 134 138
ENDBRANCH 133 135
BRANCH 133 187
ATOM    187  CB  ARG A  4        1.407   4.806  -2.615  0.00  0.00    +0.039 C 
BRANCH 187 188
ATOM    188  CG  ARG A  4        0.631   4.757  -1.278  0.00  0.00    +0.039 C 
BRANCH 188 189
ATOM    189  CD  ARG A  4        1.476   5.012  -0.014  0.00  0.00    +0.196 C 
BRANCH 189 190
ATOM    190  NE  ARG A  4        2.461   3.958   0.228  0.00  0.00    -0.276 N 
ATOM    191  HE  ARG A  4        2.042   3.052   0.382  0.00  0.00    +0.258 HD
BRANCH 190 192
ATOM    192  CZ  ARG A  4        3.783   3.966  -0.307  0.00  0.00    +0.376 C 
ATOM    193  NH1 ARG A  4        4.488   2.924  -0.345  0.00  0.00    -0.130 NA
ATOM    194  HH1 ARG A  4        4.013   2.114   0.028  0.00  0.00    +0.306 HD
BRANCH 192 195
ATOM    195  NH2 ARG A  4        4.274   5.209  -0.771  0.00  0.00    -0.289 N 
ATOM    196 HH21 ARG A  4        3.796   6.073  -0.565  0.00  0.00    +0.255 HD
ATOM    197 HH22 ARG A  4        5.237   5.317  -1.056  0.00  0.00    +0.255 HD
ENDBRANCH 192 195
ENDBRANCH 190 192
ENDBRANCH 189 190
ENDBRANCH 188 189
ENDBRANCH 187 188
ENDBRANCH 133 187
ENDBRANCH 129 133
ENDBRANCH 128 130
BRANCH 128 198
ATOM    198  CB  ARG A  5       -3.783   3.195  -4.853  0.00  0.00    +0.039 C 
BRANCH 198 199
ATOM    199  CG  ARG A  5       -4.606   4.406  -4.344  0.00  0.00    +0.039 C 
BRANCH 199 200
ATOM    200  CD  ARG A  5       -5.715   4.865  -5.307  0.00  0.00    +0.196 C 
BRANCH 200 201
ATOM    201  NE  ARG A  5       -5.159   5.331  -6.575  0.00  0.00    -0.276 N 
ATOM    202  HE  ARG A  5       -4.303   5.862  -6.510  0.00  0.00    +0.258 HD
BRANCH 201 203
ATOM    203  CZ  ARG A  5       -5.977   5.512  -7.724  0.00  0.00    +0.376 C 
ATOM    204  NH1 ARG A  5       -7.191   5.181  -7.825  0.00  0.00    -0.130 NA
ATOM    205  HH1 ARG A  5       -7.551   4.744  -6.988  0.00  0.00    +0.306 HD
BRANCH 203 206
ATOM    206  NH2 ARG A  5       -5.272   6.120  -8.783  0.00  0.00    -0.289 N 
ATOM    207 HH21 ARG A  5       -4.265   6.175  -8.775  0.00  0.00    +0.255 HD
ATOM    208 HH22 ARG A  5       -5.687   6.199  -9.700  0.00  0.00    +0.255 HD
ENDBRANCH 203 206
ENDBRANCH 201 203
ENDBRANCH 200 201
ENDBRANCH 199 200
ENDBRANCH 198 199
ENDBRANCH 128 198
ENDBRANCH 124 128
ENDBRANCH 123 125
BRANCH 123 209
ATOM    209  CB  ARG A  6       -2.696   3.434   0.693  0.00  0.00    +0.039 C 
BRANCH 209 210
ATOM    210  CG  ARG A  6       -3.766   4.481   0.313  0.00  0.00    +0.039 C 
BRANCH 210 211
ATOM    211  CD  ARG A  6       -3.577   5.864   0.976  0.00  0.00    +0.196 C 
BRANCH 211 212
ATOM    212  NE  ARG A  6       -3.594   5.800   2.439  0.00  0.00    -0.276 N 
ATOM    213  HE  ARG A  6       -4.458   5.482   2.853  0.00  0.00    +0.258 HD
BRANCH 212 214
ATOM    214  CZ  ARG A  6       -2.404   5.721   3.220  0.00  0.00    +0.376 C 
ATOM    215  NH1 ARG A  6       -1.224   5.797   2.780  0.00  0.00    -0.130 NA
ATOM    216  HH1 ARG A  6       -1.188   5.927   1.779  0.00  0.00    +0.306 HD
BRANCH 214 217
ATOM    217  NH2 ARG A  6       -2.681   5.540   4.591  0.00  0.00    -0.289 N 
ATOM    218 HH21 ARG A  6       -3.604   5.290   4.915  0.00  0.00    +0.255 HD
ATOM    219 HH22 ARG A  6       -1.940   5.368   5.255  0.00  0.00    +0.255 HD
ENDBRANCH 214 217
ENDBRANCH 212 214
ENDBRANCH 211 212
ENDBRANCH 210 211
ENDBRANCH 209 210
ENDBRANCH 123 209
ENDBRANCH 119 123
ENDBRANCH 118 120
BRANCH 118 220
ATOM    220  CB  ARG A  7       -0.149   0.367   3.283  0.00  0.00    +0.039 C 
BRANCH 220 221
ATOM    221  CG  ARG A  7       -0.377   1.726   4.004  0.00  0.00    +0.039 C 
BRANCH 221 222
ATOM    222  CD  ARG A  7       -0.695   1.607   5.510  0.00  0.00    +0.196 C 
BRANCH 222 223
ATOM    223  NE  ARG A  7       -1.868   0.770   5.768  0.00  0.00    -0.276 N 
ATOM    224  HE  ARG A  7       -1.718  -0.222   5.652  0.00  0.00    +0.258 HD
BRANCH 223 225
ATOM    225  CZ  ARG A  7       -3.193   1.257   5.588  0.00  0.00    +0.376 C 
ATOM    226  NH1 ARG A  7       -3.514   2.452   5.342  0.00  0.00    -0.130 NA
ATOM    227  HH1 ARG A  7       -2.713   3.065   5.280  0.00  0.00    +0.306 HD
BRANCH 225 228
ATOM    228  NH2 ARG A  7       -4.154   0.231   5.711  0.00  0.00    -0.289 N 
ATOM    229 HH21 ARG A  7       -3.902  -0.727   5.905  0.00  0.00    +0.255 HD
ATOM    230 HH22 ARG A  7       -5.143   0.407   5.610  0.00  0.00    +0.255 HD
ENDBRANCH 225 228
ENDBRANCH 223 225
ENDBRANCH 222 223
ENDBRANCH 221 222
ENDBRANCH 220 221
ENDBRANCH 118 220
ENDBRANCH   1 118
TORSDOF 120
