REMARK  Name = DB15687
REMARK                            x       y       z     vdW  Elec       q    Type
REMARK                         _______ _______ _______ _____ _____    ______ ____
ROOT
ATOM      1  CA  PHE A  7       -0.190   0.743   1.106  0.00  0.00    +0.163 C 
ENDROOT
BRANCH   1   4
ATOM      2  C   HIS A  6        1.658   0.436  -0.507  0.00  0.00    +0.234 C 
ATOM      3  O   HIS A  6        0.932   0.162  -1.464  0.00  0.00    -0.274 OA
ATOM      4  N   PHE A  7        1.220   0.639   0.746  0.00  0.00    -0.302 N 
ATOM      5  H   PHE A  7        1.883   0.841   1.480  0.00  0.00    +0.150 HD
BRANCH   2   6
ATOM      6  CA  HIS A  6        3.171   0.613  -0.726  0.00  0.00    +0.165 C 
BRANCH   6   9
ATOM      7  C   GLU A  5        3.987  -1.605   0.071  0.00  0.00    +0.234 C 
ATOM      8  O   GLU A  5        3.644  -1.455   1.245  0.00  0.00    -0.274 OA
ATOM      9  N   HIS A  6        3.833  -0.679  -0.891  0.00  0.00    -0.302 N 
ATOM     10  H   HIS A  6        4.131  -0.899  -1.831  0.00  0.00    +0.150 HD
BRANCH   7  11
ATOM     11  CA  GLU A  5        4.603  -2.942  -0.382  0.00  0.00    +0.159 C 
BRANCH  11  14
ATOM     12  C   MET A  4        6.663  -3.033   1.030  0.00  0.00    +0.234 C 
ATOM     13  O   MET A  4        7.183  -2.021   0.559  0.00  0.00    -0.274 OA
ATOM     14  N   GLU A  5        5.479  -3.531   0.632  0.00  0.00    -0.302 N 
ATOM     15  H   GLU A  5        5.133  -4.374   1.067  0.00  0.00    +0.150 HD
BRANCH  12  16
ATOM     16  CA  MET A  4        7.372  -3.826   2.140  0.00  0.00    +0.160 C 
BRANCH  16  19
ATOM     17  C   SER A  3        7.196  -6.308   2.285  0.00  0.00    +0.236 C 
ATOM     18  O   SER A  3        6.515  -6.329   3.311  0.00  0.00    -0.274 OA
ATOM     19  N   MET A  4        7.617  -5.191   1.671  0.00  0.00    -0.302 N 
ATOM     20  H   MET A  4        8.165  -5.271   0.826  0.00  0.00    +0.150 HD
BRANCH  17  21
ATOM     21  CA  SER A  3        7.633  -7.636   1.638  0.00  0.00    +0.184 C 
BRANCH  21  24
ATOM     22  C   TYR A  2        9.536  -8.195   3.138  0.00  0.00    +0.234 C 
ATOM     23  O   TYR A  2       10.237  -7.247   2.779  0.00  0.00    -0.274 OA
ATOM     24  N   SER A  3        8.333  -8.480   2.609  0.00  0.00    -0.301 N 
ATOM     25  H   SER A  3        7.817  -9.278   2.950  0.00  0.00    +0.150 HD
BRANCH  22  26
ATOM     26  CA  TYR A  2       10.007  -9.120   4.277  0.00  0.00    +0.163 C 
BRANCH  26  27
ATOM     27  N   TYR A  2       11.414  -8.902   4.629  0.00  0.00    -0.305 N 
ATOM     28  H   TYR A  2       11.567  -8.395   5.489  0.00  0.00    +0.149 HD
ATOM     29  C   SER A  1       12.479  -9.250   3.887  0.00  0.00    +0.201 C 
ATOM     30  O   SER A  1       12.373  -9.876   2.826  0.00  0.00    -0.278 OA
BRANCH  29  31
ATOM     31  CA  SER A  1       13.853  -8.797   4.475  0.00  0.00    +0.038 C 
BRANCH  31  32
ATOM     32  N   SER A  1       14.953  -9.456   3.683  0.00  0.00    +0.387 N 
ATOM     33  H1  SER A  1       14.908  -9.135   2.727  0.00  0.00    -0.089 HD
ATOM     34  H2  SER A  1       15.844  -9.204   4.087  0.00  0.00    -0.089 HD
ATOM     35  H3  SER A  1       14.833 -10.458   3.723  0.00  0.00    -0.089 HD
ENDBRANCH  31  32
BRANCH  31  36
ATOM     36  CB  SER A  1       14.050  -7.256   4.502  0.00  0.00    +0.149 C 
BRANCH  36  37
ATOM     37  OG  SER A  1       13.158  -6.608   5.389  0.00  0.00    -0.396 OA
ATOM     38  H   SER A  1       13.315  -5.661   5.348  0.00  0.00    +0.209 HD
ENDBRANCH  36  37
ENDBRANCH  31  36
ENDBRANCH  29  31
ENDBRANCH  26  27
BRANCH  26  39
ATOM     39  CB  TYR A  2        9.150  -8.893   5.542  0.00  0.00    +0.067 C 
BRANCH  39  40
ATOM     40  CG  TYR A  2        9.502  -9.790   6.717  0.00  0.00    -0.045 A 
ATOM     41  CD2 TYR A  2        9.118 -11.147   6.709  0.00  0.00    +0.007 A 
ATOM     42  CE2 TYR A  2        9.444 -11.982   7.795  0.00  0.00    +0.045 A 
ATOM     43  CZ  TYR A  2       10.155 -11.463   8.895  0.00  0.00    +0.117 A 
ATOM     44  CE1 TYR A  2       10.542 -10.108   8.906  0.00  0.00    +0.045 A 
ATOM     45  CD1 TYR A  2       10.217  -9.273   7.819  0.00  0.00    +0.007 A 
BRANCH  43  46
ATOM     46  OH  TYR A  2       10.467 -12.273   9.948  0.00  0.00    -0.507 OA
ATOM     47  HH  TYR A  2       10.941 -11.818  10.649  0.00  0.00    +0.292 HD
ENDBRANCH  43  46
ENDBRANCH  39  40
ENDBRANCH  26  39
ENDBRANCH  22  26
ENDBRANCH  21  24
BRANCH  21  48
ATOM     48  CB  SER A  3        6.438  -8.422   1.060  0.00  0.00    +0.187 C 
BRANCH  48  49
ATOM     49  OG  SER A  3        5.745  -7.671   0.082  0.00  0.00    -0.393 OA
ATOM     50  H   SER A  3        5.012  -8.196  -0.248  0.00  0.00    +0.209 HD
ENDBRANCH  48  49
ENDBRANCH  21  48
ENDBRANCH  17  21
ENDBRANCH  16  19
BRANCH  16  51
ATOM     51  CB  MET A  4        8.707  -3.193   2.598  0.00  0.00    +0.042 C 
BRANCH  51  52
ATOM     52  CG  MET A  4        9.309  -3.861   3.848  0.00  0.00    +0.071 C 
BRANCH  52  53
ATOM     53  SD  MET A  4       10.935  -3.236   4.355  0.00  0.00    -0.164 S 
ATOM     54  CE  MET A  4       11.988  -3.989   3.085  0.00  0.00    +0.084 C 
ENDBRANCH  52  53
ENDBRANCH  51  52
ENDBRANCH  16  51
ENDBRANCH  12  16
ENDBRANCH  11  14
BRANCH  11  55
ATOM     55  CB  GLU A  5        3.535  -3.999  -0.770  0.00  0.00    +0.043 C 
BRANCH  55  56
ATOM     56  CG  GLU A  5        2.382  -3.546  -1.705  0.00  0.00    +0.123 C 
BRANCH  56  57
ATOM     57  CD  GLU A  5        2.780  -3.053  -3.109  0.00  0.00    +0.305 C 
ATOM     58  OE2 GLU A  5        1.922  -2.385  -3.727  0.00  0.00    -0.251 OA
BRANCH  57  59
ATOM     59  OE1 GLU A  5        3.912  -3.341  -3.559  0.00  0.00    -0.481 OA
ATOM     60  HE1 GLU A  5        4.166  -3.047  -4.412  0.00  0.00    +0.295 HD
ENDBRANCH  57  59
ENDBRANCH  56  57
ENDBRANCH  55  56
ENDBRANCH  11  55
ENDBRANCH   7  11
ENDBRANCH   6   9
BRANCH   6  61
ATOM     61  CB  HIS A  6        3.471   1.486  -1.967  0.00  0.00    +0.086 C 
BRANCH  61  62
ATOM     62  CG  HIS A  6        2.841   2.864  -1.988  0.00  0.00    +0.038 A 
ATOM     63  CD2 HIS A  6        2.348   3.678  -0.989  0.00  0.00    +0.133 A 
ATOM     64  NE2 HIS A  6        1.844   4.858  -1.539  0.00  0.00    -0.244 NA
ATOM     65  CE1 HIS A  6        2.059   4.723  -2.842  0.00  0.00    +0.196 A 
ATOM     66  ND1 HIS A  6        2.644   3.567  -3.164  0.00  0.00    -0.348 N 
ATOM     67  HD1 HIS A  6        2.892   3.258  -4.093  0.00  0.00    +0.166 HD
ENDBRANCH  61  62
ENDBRANCH   6  61
ENDBRANCH   2   6
ENDBRANCH   1   4
BRANCH   1  68
ATOM     68  C   PHE A  7       -0.709   2.149   0.770  0.00  0.00    +0.234 C 
ATOM     69  O   PHE A  7       -0.249   3.122   1.368  0.00  0.00    -0.274 OA
ATOM     70  N   ARG A  8       -1.653   2.214  -0.181  0.00  0.00    -0.302 N 
ATOM     71  H   ARG A  8       -1.974   1.364  -0.621  0.00  0.00    +0.150 HD
BRANCH  70  72
ATOM     72  CA  ARG A  8       -2.307   3.445  -0.616  0.00  0.00    +0.159 C 
BRANCH  72  73
ATOM     73  C   ARG A  8       -3.521   3.706   0.287  0.00  0.00    +0.234 C 
ATOM     74  O   ARG A  8       -4.493   2.952   0.242  0.00  0.00    -0.274 OA
ATOM     75  N   TRP A  9       -3.395   4.746   1.125  0.00  0.00    -0.302 N 
ATOM     76  H   TRP A  9       -2.550   5.298   1.085  0.00  0.00    +0.150 HD
BRANCH  75  77
ATOM     77  CA  TRP A  9       -4.328   5.117   2.190  0.00  0.00    +0.163 C 
BRANCH  77  78
ATOM     78  C   TRP A  9       -5.696   5.583   1.666  0.00  0.00    +0.234 C 
ATOM     79  N   GLY A 10       -6.747   5.259   2.435  0.00  0.00    -0.305 N 
ATOM     80  H   GLY A 10       -6.587   4.726   3.278  0.00  0.00    +0.149 HD
ATOM     81  O   TRP A  9       -5.764   6.232   0.623  0.00  0.00    -0.274 OA
BRANCH  79  82
ATOM     82  CA  GLY A 10       -8.139   5.568   2.117  0.00  0.00    +0.200 C 
BRANCH  82  83
ATOM     83  C   GLY A 10       -8.834   4.346   1.499  0.00  0.00    +0.231 C 
ATOM     84  O   GLY A 10       -8.202   3.336   1.182  0.00  0.00    -0.274 OA
ATOM     85  N   LYS A 11      -10.161   4.462   1.339  0.00  0.00    -0.303 N 
ATOM     86  H   LYS A 11      -10.617   5.321   1.609  0.00  0.00    +0.149 HD
BRANCH  85  87
ATOM     87  CA  LYS A 11      -11.044   3.422   0.810  0.00  0.00    +0.159 C 
BRANCH  87  88
ATOM     88  C   LYS A 11      -12.380   4.088   0.412  0.00  0.00    +0.237 C 
ATOM     89  O   LYS A 11      -13.020   4.660   1.297  0.00  0.00    -0.274 OA
ATOM     90  N   PRO A 12      -12.816   3.994  -0.868  0.00  0.00    -0.288 N 
ATOM     91  CD  PRO A 12      -14.138   4.499  -1.252  0.00  0.00    +0.109 C 
ATOM     92  CG  PRO A 12      -14.220   4.340  -2.766  0.00  0.00    +0.021 C 
ATOM     93  CB  PRO A 12      -13.270   3.185  -3.039  0.00  0.00    +0.033 C 
ATOM     94  CA  PRO A 12      -12.139   3.348  -2.008  0.00  0.00    +0.162 C 
BRANCH  94  95
ATOM     95  C   PRO A 12      -10.970   4.188  -2.558  0.00  0.00    +0.234 C 
ATOM     96  N   VAL A 13       -9.761   3.605  -2.521  0.00  0.00    -0.301 N 
ATOM     97  H   VAL A 13       -9.695   2.650  -2.200  0.00  0.00    +0.150 HD
ATOM     98  O   PRO A 12      -11.184   5.316  -3.004  0.00  0.00    -0.274 OA
BRANCH  96  99
ATOM     99  CA  VAL A 13       -8.531   4.133  -3.135  0.00  0.00    +0.184 C 
BRANCH  99 100
ATOM    100  CB  VAL A 13       -7.677   5.000  -2.141  0.00  0.00    +0.014 C 
ATOM    101  CG2 VAL A 13       -6.300   5.408  -2.707  0.00  0.00    +0.009 C 
ATOM    102  CG1 VAL A 13       -8.419   6.268  -1.675  0.00  0.00    +0.009 C 
ENDBRANCH  99 100
BRANCH  99 103
ATOM    103  C   VAL A 13       -7.776   2.868  -3.688  0.00  0.00    +0.326 C 
ATOM    104  OXT VAL A 13       -7.875   2.701  -4.927  0.00  0.00    -0.249 OA
BRANCH 103 105
ATOM    105  O   VAL A 13       -7.187   2.152  -2.842  0.00  0.00    -0.479 OA
ATOM    106  H   VAL A 13       -6.722   1.386  -3.118  0.00  0.00    +0.295 HD
ENDBRANCH 103 105
ENDBRANCH  99 103
ENDBRANCH  96  99
ENDBRANCH  94  95
ENDBRANCH  87  88
BRANCH  87 107
ATOM    107  CB  LYS A 11      -11.245   2.328   1.889  0.00  0.00    +0.032 C 
BRANCH 107 108
ATOM    108  CG  LYS A 11      -12.176   1.180   1.454  0.00  0.00    +0.000 C 
BRANCH 108 109
ATOM    109  CD  LYS A 11      -12.233   0.044   2.491  0.00  0.00    -0.019 C 
BRANCH 109 110
ATOM    110  CE  LYS A 11      -13.129  -1.140   2.081  0.00  0.00    -0.086 C 
BRANCH 110 111
ATOM    111  NZ  LYS A 11      -14.562  -0.793   2.076  0.00  0.00    +0.378 N 
ATOM    112  HZ1 LYS A 11      -14.840  -0.493   2.999  0.00  0.00    -0.090 HD
ATOM    113  HZ2 LYS A 11      -14.726  -0.046   1.416  0.00  0.00    -0.090 HD
ATOM    114  HZ3 LYS A 11      -15.104  -1.603   1.809  0.00  0.00    -0.090 HD
ENDBRANCH 110 111
ENDBRANCH 109 110
ENDBRANCH 108 109
ENDBRANCH 107 108
ENDBRANCH  87 107
ENDBRANCH  85  87
ENDBRANCH  82  83
ENDBRANCH  79  82
ENDBRANCH  77  78
BRANCH  77 115
ATOM    115  CB  TRP A  9       -3.679   6.210   3.065  0.00  0.00    +0.069 C 
BRANCH 115 116
ATOM    116  CG  TRP A  9       -2.332   5.873   3.638  0.00  0.00    -0.020 A 
ATOM    117  CD1 TRP A  9       -2.114   5.312   4.849  0.00  0.00    +0.087 A 
ATOM    118  NE1 TRP A  9       -0.764   5.081   5.016  0.00  0.00    -0.360 N 
ATOM    119  HE1 TRP A  9       -0.383   4.661   5.852  0.00  0.00    +0.165 HD
ATOM    120  CE2 TRP A  9       -0.038   5.471   3.910  0.00  0.00    +0.047 A 
ATOM    121  CZ2 TRP A  9        1.331   5.427   3.590  0.00  0.00    +0.026 A 
ATOM    122  CH2 TRP A  9        1.759   5.910   2.340  0.00  0.00    +0.002 A 
ATOM    123  CZ3 TRP A  9        0.820   6.433   1.431  0.00  0.00    +0.001 A 
ATOM    124  CE3 TRP A  9       -0.550   6.470   1.762  0.00  0.00    +0.010 A 
ATOM    125  CD2 TRP A  9       -1.018   5.989   3.009  0.00  0.00    +0.003 A 
ENDBRANCH 115 116
ENDBRANCH  77 115
ENDBRANCH  75  77
ENDBRANCH  72  73
BRANCH  72 126
ATOM    126  CB  ARG A  8       -2.681   3.327  -2.107  0.00  0.00    +0.033 C 
BRANCH 126 127
ATOM    127  CG  ARG A  8       -1.448   3.102  -3.013  0.00  0.00    +0.017 C 
BRANCH 127 128
ATOM    128  CD  ARG A  8       -1.726   3.095  -4.527  0.00  0.00    +0.084 C 
BRANCH 128 129
ATOM    129  NE  ARG A  8       -2.724   2.084  -4.924  0.00  0.00    -0.283 NA
ATOM    130  HE  ARG A  8       -2.411   1.125  -4.866  0.00  0.00    +0.125 HD
BRANCH 129 131
ATOM    131  CZ  ARG A  8       -4.008   2.293  -5.276  0.00  0.00    +0.167 C 
BRANCH 131 132
ATOM    132  NH1 ARG A  8       -4.541   3.522  -5.368  0.00  0.00    -0.297 NA
ATOM    133 HH11 ARG A  8       -3.983   4.337  -5.160  0.00  0.00    +0.121 HD
ATOM    134 HH12 ARG A  8       -5.520   3.630  -5.599  0.00  0.00    +0.121 HD
ENDBRANCH 131 132
BRANCH 131 135
ATOM    135  NH2 ARG A  8       -4.783   1.234  -5.540  0.00  0.00    -0.297 NA
ATOM    136 HH21 ARG A  8       -4.413   0.298  -5.465  0.00  0.00    +0.121 HD
ATOM    137 HH22 ARG A  8       -5.761   1.369  -5.761  0.00  0.00    +0.121 HD
ENDBRANCH 131 135
ENDBRANCH 129 131
ENDBRANCH 128 129
ENDBRANCH 127 128
ENDBRANCH 126 127
ENDBRANCH  72 126
ENDBRANCH  70  72
ENDBRANCH   1  68
BRANCH   1 138
ATOM    138  CB  PHE A  7       -0.386   0.365   2.591  0.00  0.00    +0.067 C 
BRANCH 138 139
ATOM    139  CG  PHE A  7       -1.799   0.556   3.121  0.00  0.00    -0.045 A 
ATOM    140  CD2 PHE A  7       -2.144   1.726   3.832  0.00  0.00    +0.004 A 
ATOM    141  CE2 PHE A  7       -3.461   1.944   4.213  0.00  0.00    +0.000 A 
ATOM    142  CZ  PHE A  7       -4.449   1.029   3.873  0.00  0.00    +0.000 A 
ATOM    143  CE1 PHE A  7       -4.130  -0.112   3.148  0.00  0.00    +0.000 A 
ATOM    144  CD1 PHE A  7       -2.818  -0.351   2.761  0.00  0.00    +0.004 A 
ENDBRANCH 138 139
ENDBRANCH   1 138
TORSDOF 59
