REMARK  Name = DB15236
REMARK                            x       y       z     vdW  Elec       q    Type
REMARK                         _______ _______ _______ _____ _____    ______ ____
ROOT
ATOM      1  C   LIG    1        1.472   0.083  -0.036  0.00  0.00    +0.181 C 
ENDROOT
BRANCH   1   2
ATOM      2  O   LIG    1        2.106  -1.175   0.129  0.00  0.00    -0.386 OA
ATOM      3  H   LIG    1        1.789  -1.575   0.942  0.00  0.00    +0.210 HD
ENDBRANCH   1   2
BRANCH   1   4
ATOM      4  C   LIG    1       -0.080  -0.079   0.067  0.00  0.00    +0.174 C 
BRANCH   4   6
ATOM      5  C   LIG    1       -2.115  -0.952   1.434  0.00  0.00    +0.040 C 
ATOM      6  C   LIG    1       -0.583  -0.811   1.348  0.00  0.00    +0.142 C 
BRANCH   6   7
ATOM      7  O   LIG    1       -0.126  -0.169   2.526  0.00  0.00    -0.389 OA
ATOM      8  H   LIG    1        0.825  -0.056   2.466  0.00  0.00    +0.210 HD
ENDBRANCH   6   7
ENDBRANCH   4   6
BRANCH   4   9
ATOM      9  O   LIG    1       -0.709   1.188  -0.049  0.00  0.00    -0.387 OA
ATOM     10  H   LIG    1       -0.343   1.641  -0.813  0.00  0.00    +0.210 HD
ENDBRANCH   4   9
ENDBRANCH   1   4
BRANCH   1  11
ATOM     11  C   LIG    1        2.028   0.757  -1.332  0.00  0.00    +0.208 C 
BRANCH  11  12
ATOM     12  C   LIG    1        1.548   0.175  -2.673  0.00  0.00    +0.257 C 
ATOM     13  O   LIG    1        1.345  -1.029  -2.824  0.00  0.00    -0.298 OA
ENDBRANCH  11  12
BRANCH  11  14
ATOM     14  O   LIG    1        1.772   2.149  -1.347  0.00  0.00    -0.382 OA
ATOM     15  H   LIG    1        2.264   2.545  -2.070  0.00  0.00    +0.210 HD
ENDBRANCH  11  14
ENDBRANCH   1  11
TORSDOF 8
