REMARK  Name = DB15444
REMARK                            x       y       z     vdW  Elec       q    Type
REMARK                         _______ _______ _______ _____ _____    ______ ____
ROOT
ATOM      1  C   LIG    1       -1.928  -0.760   0.298  0.00  0.00    +0.136 A 
ATOM      2  C   LIG    1       -2.730   0.401   0.417  0.00  0.00    +0.078 A 
ATOM      3  C   LIG    1       -2.075   1.642   0.376  0.00  0.00    +0.020 A 
ATOM      4  C   LIG    1       -0.692   1.715   0.216  0.00  0.00    +0.049 A 
ATOM      5  C   LIG    1        0.037   0.528   0.091  0.00  0.00    +0.156 A 
ATOM      6  N   LIG    1       -0.580  -0.683   0.130  0.00  0.00    -0.212 NA
ENDROOT
BRANCH   1  13
ATOM      7  C   LIG    1       -0.333  -3.425  -2.153  0.00  0.00    +0.009 C 
ATOM      8  C   LIG    1       -1.493  -3.793  -1.209  0.00  0.00    +0.005 C 
ATOM      9  C   LIG    1       -1.059  -4.006   0.242  0.00  0.00    +0.030 C 
ATOM     10  C   LIG    1       -2.052  -3.190   1.094  0.00  0.00    +0.031 C 
ATOM     11  C   LIG    1       -3.292  -4.055   1.457  0.00  0.00    +0.031 C 
ATOM     12  C   LIG    1       -1.404  -2.753   2.435  0.00  0.00    +0.031 C 
ATOM     13  N   LIG    1       -2.455  -2.062   0.222  0.00  0.00    -0.309 N 
ATOM     14  C   LIG    1       -2.559  -2.694  -1.098  0.00  0.00    +0.110 C 
ENDBRANCH   1  13
BRANCH   5  15
ATOM     15  N   LIG    1        1.447   0.544  -0.102  0.00  0.00    -0.218 N 
ATOM     16  N   LIG    1        2.140  -0.598  -0.311  0.00  0.00    -0.127 NA
ATOM     17  C   LIG    1        3.395  -0.247  -0.467  0.00  0.00    +0.234 A 
ATOM     18  C   LIG    1        3.563   1.141  -0.354  0.00  0.00    +0.088 A 
ATOM     19  C   LIG    1        2.294   1.632  -0.118  0.00  0.00    +0.120 A 
BRANCH  17  20
ATOM     20  O   LIG    1        4.323  -1.229  -0.708  0.00  0.00    -0.475 OA
BRANCH  20  21
ATOM     21  C   LIG    1        5.664  -0.791  -0.926  0.00  0.00    +0.246 C 
BRANCH  21  22
ATOM     22  C   LIG    1        6.600  -1.997  -1.216  0.00  0.00    +0.094 C 
ATOM     23  C   LIG    1        6.099  -2.749  -2.475  0.00  0.00    +0.023 C 
ATOM     24  C   LIG    1        6.578  -2.969  -0.009  0.00  0.00    +0.023 C 
BRANCH  22  25
ATOM     25  C   LIG    1        8.054  -1.486  -1.453  0.00  0.00    +0.398 C 
ATOM     26  F   LIG    1        8.126  -0.649  -2.489  0.00  0.00    -0.170 F 
ATOM     27  F   LIG    1        8.900  -2.487  -1.705  0.00  0.00    -0.170 F 
ATOM     28  F   LIG    1        8.532  -0.833  -0.392  0.00  0.00    -0.170 F 
ENDBRANCH  22  25
ENDBRANCH  21  22
ENDBRANCH  20  21
ENDBRANCH  17  20
ENDBRANCH   5  15
BRANCH   2  29
ATOM     29  C   LIG    1       -4.238   0.384   0.585  0.00  0.00    +0.266 C 
ATOM     30  N   LIG    1       -4.817  -0.736   1.225  0.00  0.00    -0.181 N 
ATOM     31  H   LIG    1       -4.193  -1.450   1.611  0.00  0.00    +0.177 HD
ATOM     32  O   LIG    1       -4.921   1.334   0.202  0.00  0.00    -0.268 OA
BRANCH  30  33
ATOM     33  S   LIG    1       -6.510  -0.918   1.677  0.00  0.00    +0.078 S 
ATOM     34  O   LIG    1       -6.728  -2.307   2.094  0.00  0.00    -0.150 OA
ATOM     35  O   LIG    1       -7.369  -0.256   0.688  0.00  0.00    -0.150 OA
BRANCH  33  36
ATOM     36  C   LIG    1       -6.554   0.086   3.178  0.00  0.00    +0.149 A 
ATOM     37  C   LIG    1       -5.790  -0.075   4.348  0.00  0.00    +0.086 A 
ATOM     38  C   LIG    1       -4.737  -1.111   4.674  0.00  0.00    +0.069 C 
ATOM     39  N   LIG    1       -6.086   0.848   5.240  0.00  0.00    -0.175 NA
ATOM     40  N   LIG    1       -7.036   1.603   4.676  0.00  0.00    -0.272 N 
ATOM     41  C   LIG    1       -7.580   2.732   5.410  0.00  0.00    +0.172 C 
ATOM     42  C   LIG    1       -7.356   1.187   3.413  0.00  0.00    +0.137 A 
ENDBRANCH  33  36
ENDBRANCH  30  33
ENDBRANCH   2  29
TORSDOF 9
