REMARK  Name = DB15405
REMARK                            x       y       z     vdW  Elec       q    Type
REMARK                         _______ _______ _______ _____ _____    ______ ____
ROOT
ATOM      1  C   LIG    1        0.005   0.096  -0.003  0.00  0.00    +0.030 C 
ENDROOT
BRANCH   1   2
ATOM      2  C   LIG    1        1.527   0.024  -0.026  0.00  0.00    -0.048 A 
ATOM      3  C   LIG    1        2.190  -0.459  -1.155  0.00  0.00    +0.007 A 
ATOM      4  C   LIG    1        3.581  -0.526  -1.172  0.00  0.00    +0.046 A 
ATOM      5  C   LIG    1        4.323  -0.109  -0.056  0.00  0.00    +0.121 A 
ATOM      6  C   LIG    1        3.651   0.376   1.067  0.00  0.00    +0.046 A 
ATOM      7  C   LIG    1        2.260   0.442   1.086  0.00  0.00    +0.007 A 
BRANCH   5   8
ATOM      8  O   LIG    1        5.702  -0.141   0.020  0.00  0.00    -0.489 OA
BRANCH   8   9
ATOM      9  C   LIG    1        6.453  -0.645  -1.081  0.00  0.00    +0.262 C 
BRANCH   9  10
ATOM     10  C   LIG    1        7.946  -0.582  -0.739  0.00  0.00    +0.254 C 
ATOM     11  F   LIG    1        8.294  -1.389   0.263  0.00  0.00    -0.246 F 
ENDBRANCH   9  10
ENDBRANCH   8   9
ENDBRANCH   5   8
ENDBRANCH   1   2
BRANCH   1  12
ATOM     12  CA  LIG    1       -0.567   1.529  -0.167  0.00  0.00    +0.040 C 
BRANCH  12  13
ATOM     13  N   LIG    1       -2.051   1.508   0.236  0.00  0.00    +0.387 N 
ATOM     14  H1  LIG    1       -2.565   0.882  -0.367  0.00  0.00    -0.089 HD
ATOM     15  H2  LIG    1       -2.143   1.188   1.190  0.00  0.00    -0.089 HD
ATOM     16  H3  LIG    1       -2.443   2.436   0.168  0.00  0.00    -0.089 HD
ENDBRANCH  12  13
BRANCH  12  17
ATOM     17  C   LIG    1       -0.456   2.055  -1.626  0.00  0.00    +0.290 C 
ATOM     18  OXT LIG    1        0.652   2.532  -1.955  0.00  0.00    -0.253 OA
BRANCH  17  19
ATOM     19  O   LIG    1       -1.435   1.966  -2.405  0.00  0.00    -0.482 OA
ATOM     20  H   LIG    1       -1.364   2.284  -3.284  0.00  0.00    +0.295 HD
ENDBRANCH  17  19
ENDBRANCH  12  17
ENDBRANCH   1  12
TORSDOF 8
