REMARK  Name = DB15198
REMARK                            x       y       z     vdW  Elec       q    Type
REMARK                         _______ _______ _______ _____ _____    ______ ____
ROOT
ATOM      1  C   LIG    1       -0.202   0.141   0.139  0.00  0.00    +0.077 C 
ENDROOT
BRANCH   1   2
ATOM      2  C   LIG    1       -0.689  -0.624  -1.137  0.00  0.00    -0.030 A 
ATOM      3  C   LIG    1       -0.042  -0.448  -2.374  0.00  0.00    +0.005 A 
ATOM      4  C   LIG    1       -0.478  -1.118  -3.513  0.00  0.00    +0.000 A 
ATOM      5  C   LIG    1       -1.574  -1.970  -3.436  0.00  0.00    +0.000 A 
ATOM      6  C   LIG    1       -2.239  -2.154  -2.228  0.00  0.00    +0.000 A 
ATOM      7  C   LIG    1       -1.800  -1.485  -1.090  0.00  0.00    +0.005 A 
ENDBRANCH   1   2
BRANCH   1   8
ATOM      8  C   LIG    1       -0.620  -0.558   1.476  0.00  0.00    -0.030 A 
ATOM      9  C   LIG    1       -1.247   0.106   2.549  0.00  0.00    +0.005 A 
ATOM     10  C   LIG    1       -1.560  -0.570   3.724  0.00  0.00    +0.000 A 
ATOM     11  C   LIG    1       -1.240  -1.917   3.853  0.00  0.00    +0.000 A 
ATOM     12  C   LIG    1       -0.603  -2.592   2.818  0.00  0.00    +0.000 A 
ATOM     13  C   LIG    1       -0.291  -1.913   1.644  0.00  0.00    +0.005 A 
ENDBRANCH   1   8
BRANCH   1  14
ATOM     14  C   LIG    1       -0.872   1.550  -0.042  0.00  0.00    +0.148 C 
ATOM     15  O   LIG    1       -0.209   2.562  -0.278  0.00  0.00    -0.296 OA
BRANCH  14  16
ATOM     16  C   LIG    1       -2.406   1.656  -0.005  0.00  0.00    +0.072 C 
ATOM     17  C   LIG    1       -3.005   2.127  -1.341  0.00  0.00    +0.012 C 
ENDBRANCH  14  16
ENDBRANCH   1  14
BRANCH   1  18
ATOM     18  C   LIG    1        1.379   0.251   0.142  0.00  0.00    +0.008 C 
BRANCH  18  19
ATOM     19  C   LIG    1        2.140   0.630   1.461  0.00  0.00    -0.071 C 
ATOM     20  C   LIG    1        1.747   2.010   2.042  0.00  0.00    -0.013 C 
BRANCH  19  21
ATOM     21  N   LIG    1        3.687   0.583   1.233  0.00  0.00    +0.378 N 
ATOM     22  H   LIG    1        3.900   1.293   0.545  0.00  0.00    -0.082 HD
ATOM     23  C   LIG    1        4.205  -0.756   0.654  0.00  0.00    -0.096 C 
ATOM     24  C   LIG    1        4.515   0.931   2.493  0.00  0.00    -0.096 C 
ENDBRANCH  19  21
ENDBRANCH  18  19
ENDBRANCH   1  18
TORSDOF 7
