REMARK  Name = DB15465
REMARK                            x       y       z     vdW  Elec       q    Type
REMARK                         _______ _______ _______ _____ _____    ______ ____
ROOT
ATOM      1  C   LIG    1        1.451   0.244  -0.105  0.00  0.00    +0.146 C 
ATOM      2  C   LIG    1        2.176   0.190  -1.247  0.00  0.00    +0.019 C 
ATOM      3  C   LIG    1        3.705   0.142  -1.298  0.00  0.00    +0.036 C 
ATOM      4  C   LIG    1        4.256   0.793  -0.011  0.00  0.00    +0.025 C 
ATOM      5  C   LIG    1        5.811   0.847   0.220  0.00  0.00    +0.065 C 
ATOM      6  N   LIG    1        6.314  -0.527   0.421  0.00  0.00    -0.302 NA
ATOM      7  C   LIG    1        7.768  -0.641   0.344  0.00  0.00    +0.105 C 
ATOM      8  C   LIG    1        5.774  -1.174   1.623  0.00  0.00    +0.085 C 
ATOM      9  C   LIG    1        4.237  -1.171   1.597  0.00  0.00    +0.031 C 
ATOM     10  C   LIG    1        6.154   1.825   1.420  0.00  0.00    +0.054 C 
ATOM     11  C   LIG    1        5.021   2.007   2.444  0.00  0.00    -0.038 A 
ATOM     12  C   LIG    1        3.847   1.268   2.287  0.00  0.00    +0.012 A 
ATOM     13  C   LIG    1        2.663   1.649   2.871  0.00  0.00    +0.167 A 
ATOM     14  C   LIG    1        2.628   2.652   3.838  0.00  0.00    +0.162 A 
ATOM     15  C   LIG    1        3.840   3.303   4.144  0.00  0.00    +0.050 A 
ATOM     16  O   LIG    1        1.574   1.042   2.289  0.00  0.00    -0.476 OA
ATOM     17  C   LIG    1        5.011   3.004   3.430  0.00  0.00    +0.008 A 
ATOM     18  C   LIG    1        3.602   0.211   1.267  0.00  0.00    +0.049 C 
ATOM     19  C   LIG    1        2.054   0.109   1.302  0.00  0.00    +0.250 C 
ENDROOT
BRANCH  14  20
ATOM     20  O   LIG    1        1.395   2.942   4.390  0.00  0.00    -0.491 OA
ATOM     21  C   LIG    1        1.311   3.978   5.361  0.00  0.00    +0.277 C 
ENDBRANCH  14  20
BRANCH   1  22
ATOM     22  O   LIG    1        0.096   0.293  -0.148  0.00  0.00    -0.423 OA
BRANCH  22  23
ATOM     23  C   LIG    1       -0.549   1.489   0.026  0.00  0.00    +0.344 C 
ATOM     24  O   LIG    1        0.019   2.581   0.136  0.00  0.00    -0.245 OA
BRANCH  23  25
ATOM     25  C   LIG    1       -2.039   1.333   0.046  0.00  0.00    +0.059 A 
ATOM     26  C   LIG    1       -2.853   2.471   0.141  0.00  0.00    +0.015 A 
ATOM     27  C   LIG    1       -4.239   2.344   0.164  0.00  0.00    +0.001 A 
ATOM     28  C   LIG    1       -4.819   1.081   0.094  0.00  0.00    +0.000 A 
ATOM     29  C   LIG    1       -4.024  -0.059   0.002  0.00  0.00    +0.001 A 
ATOM     30  C   LIG    1       -2.638   0.066  -0.022  0.00  0.00    +0.015 A 
ENDBRANCH  23  25
ENDBRANCH  22  23
ENDBRANCH   1  22
TORSDOF 4
