REMARK  Name = DB15121
REMARK                            x       y       z     vdW  Elec       q    Type
REMARK                         _______ _______ _______ _____ _____    ______ ____
ROOT
ATOM      1  C   LIG    1       -2.035   1.303  -0.080  0.00  0.00    +0.100 A 
ATOM      2  C   LIG    1       -2.729   0.016   0.063  0.00  0.00    +0.118 A 
ATOM      3  N   LIG    1       -4.089  -0.052   0.052  0.00  0.00    -0.250 NA
ATOM      4  C   LIG    1       -4.650  -1.282   0.196  0.00  0.00    +0.131 A 
ATOM      5  C   LIG    1       -3.866  -2.431   0.340  0.00  0.00    +0.131 A 
ATOM      6  N   LIG    1       -2.508  -2.370   0.342  0.00  0.00    -0.246 NA
ATOM      7  C   LIG    1       -1.939  -1.141   0.202  0.00  0.00    +0.157 A 
ATOM      8  C   LIG    1       -0.420  -1.064   0.192  0.00  0.00    +0.295 A 
ATOM      9  O   LIG    1        0.320  -2.047   0.294  0.00  0.00    -0.264 OA
ATOM     10  N   LIG    1        0.030   0.237   0.045  0.00  0.00    -0.221 N 
ATOM     11  N   LIG    1       -0.755   1.382  -0.092  0.00  0.00    -0.170 NA
ENDROOT
BRANCH   1  12
ATOM     12  C   LIG    1       -2.812   2.623  -0.225  0.00  0.00    +0.179 C 
BRANCH  12  13
ATOM     13  C   LIG    1       -3.243   3.160   1.158  0.00  0.00    +0.311 C 
ATOM     14  O   LIG    1       -4.413   2.923   1.538  0.00  0.00    -0.251 OA
BRANCH  13  15
ATOM     15  O   LIG    1       -2.409   3.831   1.810  0.00  0.00    -0.480 OA
ATOM     16  H   LIG    1       -2.687   4.332   2.551  0.00  0.00    +0.295 HD
ENDBRANCH  13  15
ENDBRANCH  12  13
ENDBRANCH   1  12
BRANCH  10  17
ATOM     17  C   LIG    1        1.490   0.458  -0.040  0.00  0.00    +0.210 C 
BRANCH  17  18
ATOM     18  C   LIG    1        2.108   0.131  -1.396  0.00  0.00    +0.101 A 
ATOM     19  S   LIG    1        3.846   0.041  -1.614  0.00  0.00    -0.070 S 
ATOM     20  C   LIG    1        3.581  -0.322  -3.312  0.00  0.00    +0.039 A 
ATOM     21  C   LIG    1        4.504  -0.569  -4.336  0.00  0.00    +0.018 A 
ATOM     22  C   LIG    1        4.005  -0.831  -5.612  0.00  0.00    +0.013 A 
ATOM     23  C   LIG    1        2.631  -0.850  -5.881  0.00  0.00    +0.057 A 
ATOM     24  C   LIG    1        1.708  -0.603  -4.854  0.00  0.00    +0.041 A 
ATOM     25  C   LIG    1        2.188  -0.337  -3.562  0.00  0.00    +0.079 A 
ATOM     26  N   LIG    1        1.408  -0.080  -2.481  0.00  0.00    -0.242 NA
BRANCH  23  27
ATOM     27  C   LIG    1        2.157  -1.147  -7.304  0.00  0.00    +0.417 C 
ATOM     28  F   LIG    1        2.678  -2.300  -7.723  0.00  0.00    -0.166 F 
ATOM     29  F   LIG    1        2.566  -0.174  -8.119  0.00  0.00    -0.166 F 
ATOM     30  F   LIG    1        0.829  -1.236  -7.394  0.00  0.00    -0.166 F 
ENDBRANCH  23  27
ENDBRANCH  17  18
ENDBRANCH  10  17
TORSDOF 6
