REMARK  Name = DB15284
REMARK                            x       y       z     vdW  Elec       q    Type
REMARK                         _______ _______ _______ _____ _____    ______ ____
ROOT
ATOM      1  N   LIG    1       -1.036   1.021   1.577  0.00  0.00    -0.250 N 
ATOM      2  C   LIG    1       -0.543  -0.275   1.388  0.00  0.00    +0.229 C 
ATOM      3  O   LIG    1       -0.572  -1.301   2.066  0.00  0.00    -0.275 OA
ATOM      4  C   LIG    1       -0.047   0.090  -0.041  0.00  0.00    +0.135 C 
ATOM      5  C   LIG    1       -2.283   1.409   1.961  0.00  0.00    +0.142 C 
ATOM      6  C   LIG    1       -2.918   2.082   0.972  0.00  0.00    +0.071 C 
ATOM      7  S   LIG    1       -1.944   2.257  -0.520  0.00  0.00    -0.093 S 
ATOM      8  C   LIG    1       -0.510   1.528   0.300  0.00  0.00    +0.159 C 
ENDROOT
BRANCH   4   9
ATOM      9  C   LIG    1        1.476  -0.128  -0.215  0.00  0.00    +0.126 C 
ATOM     10  C   LIG    1        1.892  -1.609  -0.275  0.00  0.00    +0.038 C 
BRANCH   9  11
ATOM     11  O   LIG    1        1.877   0.485  -1.425  0.00  0.00    -0.391 OA
ATOM     12  H   LIG    1        1.618   1.409  -1.399  0.00  0.00    +0.210 HD
ENDBRANCH   9  11
ENDBRANCH   4   9
BRANCH   5  13
ATOM     13  C   LIG    1       -2.725   1.018   3.407  0.00  0.00    +0.353 C 
ATOM     14  O   LIG    1       -3.835   0.445   3.480  0.00  0.00    -0.244 OA
BRANCH  13  15
ATOM     15  O   LIG    1       -1.924   1.330   4.320  0.00  0.00    -0.476 OA
ATOM     16  H   LIG    1       -2.127   1.125   5.211  0.00  0.00    +0.295 HD
ENDBRANCH  13  15
ENDBRANCH   5  13
BRANCH   6  17
ATOM     17  S   LIG    1       -4.575   2.746   1.116  0.00  0.00    -0.112 S 
BRANCH  17  18
ATOM     18  C   LIG    1       -4.595   4.169  -0.029  0.00  0.00    +0.065 C 
ATOM     19  C   LIG    1       -4.913   3.733  -1.480  0.00  0.00    +0.028 C 
ATOM     20  C   LIG    1       -6.329   4.187  -1.882  0.00  0.00    +0.105 C 
ATOM     21  S   LIG    1       -7.271   4.530  -0.326  0.00  0.00    +0.023 S 
ATOM     22  O   LIG    1       -7.703   3.222   0.338  0.00  0.00    -0.257 OA
ATOM     23  C   LIG    1       -5.690   5.154   0.407  0.00  0.00    +0.118 C 
ENDBRANCH  17  18
ENDBRANCH   6  17
TORSDOF 6
