REMARK  Name = DB15026
REMARK                            x       y       z     vdW  Elec       q    Type
REMARK                         _______ _______ _______ _____ _____    ______ ____
ROOT
ATOM      1  C   LIG    1        1.405  -0.116   0.062  0.00  0.00    +0.095 C 
ATOM      2  C   LIG    1        2.013  -0.410  -1.113  0.00  0.00    +0.001 C 
ENDROOT
BRANCH   1   3
ATOM      3  N   LIG    1        2.262  -0.092   1.275  0.00  0.00    +0.001 N 
ATOM      4  O   LIG    1        1.731  -0.370   2.346  0.00  0.00    -0.130 OA
BRANCH   3   5
ATOM      5  O   LIG    1        3.443   0.221   1.142  0.00  0.00    -0.396 OA
ATOM      6  H   LIG    1        3.782   0.422   0.292  0.00  0.00    +0.329 HD
ENDBRANCH   3   5
ENDBRANCH   1   3
BRANCH   1   7
ATOM      7  C   LIG    1       -0.085   0.166   0.288  0.00  0.00    +0.060 C 
BRANCH   7   8
ATOM      8  C   LIG    1       -0.471   1.657   0.258  0.00  0.00    +0.006 C 
BRANCH   8   9
ATOM      9  C   LIG    1        0.147   2.500   1.392  0.00  0.00    +0.000 C 
BRANCH   9  10
ATOM     10  C   LIG    1       -0.359   3.955   1.451  0.00  0.00    +0.000 C 
BRANCH  10  11
ATOM     11  C   LIG    1        0.009   4.805   0.219  0.00  0.00    -0.000 C 
BRANCH  11  12
ATOM     12  C   LIG    1       -0.410   6.281   0.361  0.00  0.00    -0.000 C 
BRANCH  12  14
ATOM     13  C   LIG    1       -0.773   6.837  -2.138  0.00  0.00    +0.004 C 
ATOM     14  C   LIG    1       -0.023   7.168  -0.838  0.00  0.00    -0.003 C 
ENDBRANCH  12  14
ENDBRANCH  11  12
ENDBRANCH  10  11
ENDBRANCH   9  10
ENDBRANCH   8   9
ENDBRANCH   7   8
ENDBRANCH   1   7
BRANCH   2  15
ATOM     15  C   LIG    1        1.351  -0.467  -2.479  0.00  0.00    +0.029 C 
BRANCH  15  16
ATOM     16  C   LIG    1        1.200  -1.899  -3.021  0.00  0.00    +0.004 C 
BRANCH  16  17
ATOM     17  C   LIG    1        0.514  -1.944  -4.397  0.00  0.00    +0.000 C 
BRANCH  17  18
ATOM     18  C   LIG    1        0.359  -3.374  -4.947  0.00  0.00    +0.000 C 
BRANCH  18  19
ATOM     19  C   LIG    1       -0.348  -3.414  -6.314  0.00  0.00    +0.001 C 
BRANCH  19  20
ATOM     20  C   LIG    1       -0.503  -4.840  -6.871  0.00  0.00    +0.011 C 
BRANCH  20  21
ATOM     21  C   LIG    1       -1.218  -4.866  -8.247  0.00  0.00    +0.120 C 
BRANCH  21  22
ATOM     22  C   LIG    1       -1.431  -6.275  -8.854  0.00  0.00    +0.305 C 
ATOM     23  O   LIG    1       -2.100  -6.321  -9.911  0.00  0.00    -0.251 OA
BRANCH  22  24
ATOM     24  O   LIG    1       -0.937  -7.283  -8.296  0.00  0.00    -0.481 OA
ATOM     25  H   LIG    1       -1.067  -8.134  -8.665  0.00  0.00    +0.295 HD
ENDBRANCH  22  24
ENDBRANCH  21  22
ENDBRANCH  20  21
ENDBRANCH  19  20
ENDBRANCH  18  19
ENDBRANCH  17  18
ENDBRANCH  16  17
ENDBRANCH  15  16
ENDBRANCH   2  15
TORSDOF 18
