REMARK  Name = DB15934
REMARK                            x       y       z     vdW  Elec       q    Type
REMARK                         _______ _______ _______ _____ _____    ______ ____
ROOT
ATOM      1  C   LIG    1       -0.012   0.021   0.013  0.00  0.00    +0.135 C 
ENDROOT
BRANCH   1   2
ATOM      2  O   LIG    1       -0.521   1.341   0.123  0.00  0.00    -0.283 OA
BRANCH   2   3
ATOM      3  P   LIG    1       -1.490   1.852   1.506  0.00  0.00    +0.473 P 
ATOM      4  O   LIG    1       -1.855   3.323   1.233  0.00  0.00    -0.228 OA
BRANCH   3   5
ATOM      5  O   LIG    1       -0.590   1.682   2.744  0.00  0.00    -0.303 OA
ATOM      6  H   LIG    1       -0.390   0.741   2.871  0.00  0.00    +0.222 HD
ENDBRANCH   3   5
BRANCH   3   7
ATOM      7  O   LIG    1       -2.720   0.926   1.534  0.00  0.00    -0.303 OA
ATOM      8  H   LIG    1       -2.435   0.016   1.709  0.00  0.00    +0.222 HD
ENDBRANCH   3   7
ENDBRANCH   2   3
ENDBRANCH   1   2
BRANCH   1   9
ATOM      9  C   LIG    1       -0.561  -0.664  -1.262  0.00  0.00    +0.060 C 
BRANCH   9  10
ATOM     10  C   LIG    1       -2.095  -0.771  -1.354  0.00  0.00    +0.158 C 
BRANCH  10  11
ATOM     11  O   LIG    1       -2.692   0.482  -1.613  0.00  0.00    -0.395 OA
ATOM     12  H   LIG    1       -3.605   0.452  -1.320  0.00  0.00    +0.209 HD
ENDBRANCH  10  11
ENDBRANCH   9  10
ENDBRANCH   1   9
BRANCH   1  13
ATOM     13  C   LIG    1        1.531   0.066   0.026  0.00  0.00    +0.060 C 
BRANCH  13  14
ATOM     14  C   LIG    1        2.132   0.695   1.293  0.00  0.00    +0.158 C 
BRANCH  14  15
ATOM     15  O   LIG    1        3.543   0.631   1.271  0.00  0.00    -0.395 OA
ATOM     16  H   LIG    1        3.874   1.054   2.066  0.00  0.00    +0.209 HD
ENDBRANCH  14  15
ENDBRANCH  13  14
ENDBRANCH   1  13
TORSDOF 10
