REMARK  Name = DB15380
REMARK                            x       y       z     vdW  Elec       q    Type
REMARK                         _______ _______ _______ _____ _____    ______ ____
ROOT
ATOM      1  C   LIG    1        1.522   0.110   0.067  0.00  0.00    +0.107 C 
ATOM      2  C   LIG    1        2.105   1.333   0.794  0.00  0.00    -0.004 A 
ATOM      3  C   LIG    1        2.183   1.632   2.201  0.00  0.00    +0.046 A 
ATOM      4  C   LIG    1        2.797   2.918   2.323  0.00  0.00    +0.053 A 
ATOM      5  N   LIG    1        3.083   3.364   1.042  0.00  0.00    -0.341 N 
ATOM      6  C   LIG    1        3.016   3.522   3.569  0.00  0.00    +0.026 A 
ATOM      7  C   LIG    1        2.614   2.820   4.702  0.00  0.00    +0.006 A 
ATOM      8  C   LIG    1        2.014   1.569   4.615  0.00  0.00    +0.046 A 
ATOM      9  C   LIG    1        1.786   0.959   3.374  0.00  0.00    +0.130 A 
ATOM     10  C   LIG    1        2.687   2.407   0.129  0.00  0.00    +0.024 A 
ATOM     11  C   LIG    1        2.775   2.568  -1.386  0.00  0.00    +0.054 C 
ATOM     12  C   LIG    1        1.807   1.574  -2.059  0.00  0.00    +0.007 C 
ATOM     13  C   LIG    1        1.886   0.161  -1.448  0.00  0.00    +0.018 C 
ENDROOT
BRANCH   1  15
ATOM     14  N   LIG    1       -0.629  -1.209   0.242  0.00  0.00    -0.302 N 
ATOM     15  C   LIG    1       -0.020   0.011   0.240  0.00  0.00    +0.223 C 
ATOM     16  O   LIG    1       -0.666   1.055   0.372  0.00  0.00    -0.275 OA
BRANCH  14  18
ATOM     17  C   LIG    1       -2.904  -1.175  -0.820  0.00  0.00    +0.024 C 
ATOM     18  C   LIG    1       -2.078  -1.338   0.466  0.00  0.00    +0.104 C 
ENDBRANCH  14  18
BRANCH  14  19
ATOM     19  C   LIG    1        0.053  -2.487  -0.010  0.00  0.00    +0.104 C 
ATOM     20  C   LIG    1        0.509  -3.201   1.271  0.00  0.00    +0.024 C 
ENDBRANCH  14  19
ENDBRANCH   1  15
BRANCH   9  21
ATOM     21  O   LIG    1        1.189  -0.273   3.187  0.00  0.00    -0.494 OA
ATOM     22  C   LIG    1        0.711  -0.979   4.326  0.00  0.00    +0.277 C 
ENDBRANCH   9  21
BRANCH   5  23
ATOM     23  C   LIG    1        3.682   4.658   0.710  0.00  0.00    +0.155 C 
BRANCH  23  24
ATOM     24  C   LIG    1        2.606   5.750   0.584  0.00  0.00    +0.235 C 
ATOM     25  F   LIG    1        1.929   5.979   1.709  0.00  0.00    -0.247 F 
ENDBRANCH  23  24
ENDBRANCH   5  23
TORSDOF 6
