REMARK  Name = DB15448
REMARK                            x       y       z     vdW  Elec       q    Type
REMARK                         _______ _______ _______ _____ _____    ______ ____
ROOT
ATOM      1  N   LIG    1        1.465  -0.063   0.091  0.00  0.00    -0.218 N 
ATOM      2  C   LIG    1        2.256   0.725   0.909  0.00  0.00    +0.131 A 
ATOM      3  C   LIG    1        3.575   0.418   0.566  0.00  0.00    +0.081 A 
ATOM      4  C   LIG    1        3.449  -0.595  -0.393  0.00  0.00    +0.148 A 
ATOM      5  N   LIG    1        2.203  -0.862  -0.698  0.00  0.00    -0.172 NA
ENDROOT
BRANCH   1   8
ATOM      6  C   LIG    1       -0.104  -2.600   0.331  0.00  0.00    +0.046 C 
ATOM      7  C   LIG    1       -0.718  -1.237   0.032  0.00  0.00    -0.025 A 
ATOM      8  C   LIG    1        0.053  -0.061  -0.043  0.00  0.00    +0.071 A 
ATOM      9  C   LIG    1       -0.580   1.168  -0.272  0.00  0.00    +0.041 A 
ATOM     10  C   LIG    1       -1.972   1.254  -0.425  0.00  0.00    +0.039 A 
ATOM     11  C   LIG    1       -2.723   0.074  -0.360  0.00  0.00    +0.013 A 
ATOM     12  C   LIG    1       -2.104  -1.153  -0.131  0.00  0.00    +0.006 A 
BRANCH  10  13
ATOM     13  C   LIG    1       -2.660   2.579  -0.669  0.00  0.00    +0.244 C 
ATOM     14  N   LIG    1       -1.991   3.679  -0.270  0.00  0.00    -0.308 N 
ATOM     15  H   LIG    1       -1.189   3.548   0.328  0.00  0.00    +0.149 HD
ATOM     16  O   LIG    1       -3.776   2.625  -1.191  0.00  0.00    -0.270 OA
BRANCH  14  17
ATOM     17  C   LIG    1       -2.505   5.040  -0.367  0.00  0.00    +0.073 C 
ATOM     18  C   LIG    1       -1.556   6.141  -0.778  0.00  0.00    +0.024 C 
ATOM     19  C   LIG    1       -2.638   5.684  -1.730  0.00  0.00    +0.024 C 
ENDBRANCH  14  17
ENDBRANCH  10  13
ENDBRANCH   1   8
BRANCH   2  20
ATOM     20  N   LIG    1        1.723   1.577   1.844  0.00  0.00    -0.342 N 
ATOM     21  H   LIG    1        0.725   1.658   1.976  0.00  0.00    +0.144 HD
ATOM     22  H   LIG    1        2.309   2.135   2.448  0.00  0.00    +0.144 HD
ENDBRANCH   2  20
BRANCH   3  23
ATOM     23  C   LIG    1        4.833   0.970   1.081  0.00  0.00    +0.198 C 
ATOM     24  O   LIG    1        5.784   0.206   1.256  0.00  0.00    -0.286 OA
BRANCH  23  25
ATOM     25  C   LIG    1        4.926   2.426   1.438  0.00  0.00    +0.024 A 
ATOM     26  C   LIG    1        4.092   3.387   0.841  0.00  0.00    +0.030 A 
ATOM     27  C   LIG    1        4.205   4.740   1.172  0.00  0.00    +0.052 A 
ATOM     28  C   LIG    1        5.175   5.151   2.088  0.00  0.00    +0.019 A 
ATOM     29  C   LIG    1        6.030   4.213   2.664  0.00  0.00    +0.002 A 
ATOM     30  C   LIG    1        5.911   2.862   2.337  0.00  0.00    +0.012 A 
BRANCH  27  31
ATOM     31  C   LIG    1        3.311   5.715   0.563  0.00  0.00    +0.099 C 
ATOM     32  N   LIG    1        2.600   6.489   0.079  0.00  0.00    -0.191 NA
ENDBRANCH  27  31
ENDBRANCH  23  25
ENDBRANCH   3  23
TORSDOF 7
