REMARK  Name = DB15427
REMARK                            x       y       z     vdW  Elec       q    Type
REMARK                         _______ _______ _______ _____ _____    ______ ____
ROOT
ATOM      1  C   LIG    1        1.454   0.012  -0.112  0.00  0.00    +0.178 C 
ATOM      2  C   LIG    1        2.271  -1.270  -0.361  0.00  0.00    +0.184 C 
ATOM      3  C   LIG    1        3.207  -1.355   0.840  0.00  0.00    +0.246 C 
ATOM      4  F   LIG    1        2.556  -1.894   1.876  0.00  0.00    -0.238 F 
ATOM      5  C   LIG    1        3.465   0.127   1.077  0.00  0.00    +0.260 C 
ATOM      6  O   LIG    1        2.243   0.756   0.818  0.00  0.00    -0.345 OA
ENDROOT
BRANCH   5   7
ATOM      7  N   LIG    1        4.004   0.502   2.378  0.00  0.00    -0.270 N 
ATOM      8  C   LIG    1        5.376   0.568   2.541  0.00  0.00    +0.331 A 
ATOM      9  O   LIG    1        6.221   0.363   1.668  0.00  0.00    -0.246 OA
ATOM     10  N   LIG    1        5.767   0.883   3.818  0.00  0.00    -0.274 N 
ATOM     11  H   LIG    1        6.765   0.947   3.955  0.00  0.00    +0.173 HD
ATOM     12  C   LIG    1        5.016   1.114   4.935  0.00  0.00    +0.267 A 
ATOM     13  O   LIG    1        5.520   1.391   6.022  0.00  0.00    -0.267 OA
ATOM     14  C   LIG    1        3.587   0.991   4.693  0.00  0.00    +0.094 A 
ATOM     15  I   LIG    1        2.208   1.274   6.316  0.00  0.00    -0.037 I 
ATOM     16  C   LIG    1        3.161   0.694   3.450  0.00  0.00    +0.113 A 
ENDBRANCH   5   7
BRANCH   2  17
ATOM     17  O   LIG    1        2.985  -1.234  -1.584  0.00  0.00    -0.386 OA
ATOM     18  H   LIG    1        3.543  -0.453  -1.591  0.00  0.00    +0.210 HD
ENDBRANCH   2  17
BRANCH   1  19
ATOM     19  C   LIG    1        0.069  -0.238   0.519  0.00  0.00    +0.190 C 
BRANCH  19  20
ATOM     20  O   LIG    1       -0.636   0.975   0.690  0.00  0.00    -0.392 OA
ATOM     21  H   LIG    1       -1.491   0.781   1.081  0.00  0.00    +0.210 HD
ENDBRANCH  19  20
ENDBRANCH   1  19
TORSDOF 4
