REMARK  Name = DB15266
REMARK                            x       y       z     vdW  Elec       q    Type
REMARK                         _______ _______ _______ _____ _____    ______ ____
ROOT
ATOM      1  C   LIG    1        1.485  -0.099  -0.046  0.00  0.00    +0.099 A 
ATOM      2  S   LIG    1        2.365  -1.170  -1.097  0.00  0.00    -0.066 S 
ATOM      3  C   LIG    1        3.861  -0.519  -0.490  0.00  0.00    +0.094 A 
ATOM      4  C   LIG    1        3.546   0.469   0.447  0.00  0.00    +0.132 A 
ATOM      5  N   LIG    1        2.264   0.677   0.676  0.00  0.00    -0.250 NA
ENDROOT
BRANCH   3   6
ATOM      6  C   LIG    1        5.134  -0.991  -0.975  0.00  0.00    +0.257 C 
ATOM      7  N   LIG    1        6.193  -0.494  -0.294  0.00  0.00    -0.266 N 
ATOM      8  H   LIG    1        5.984   0.115   0.483  0.00  0.00    +0.157 HD
ATOM      9  O   LIG    1        5.203  -1.781  -1.919  0.00  0.00    -0.269 OA
BRANCH   7  10
ATOM     10  C   LIG    1        7.561  -0.764  -0.484  0.00  0.00    +0.126 A 
ATOM     11  C   LIG    1        8.430  -0.290   0.504  0.00  0.00    +0.057 A 
ATOM     12  C   LIG    1        9.811  -0.513   0.383  0.00  0.00    +0.078 A 
ATOM     13  C   LIG    1       10.277  -1.208  -0.748  0.00  0.00    +0.071 A 
ATOM     14 CL   LIG    1       11.956  -1.539  -1.009  0.00  0.00    -0.081 Cl
ATOM     15  C   LIG    1        9.351  -1.645  -1.696  0.00  0.00    +0.133 A 
ATOM     16  N   LIG    1        8.018  -1.433  -1.579  0.00  0.00    -0.239 NA
BRANCH  12  17
ATOM     17  C   LIG    1       10.775  -0.007   1.462  0.00  0.00    +0.419 C 
ATOM     18  F   LIG    1       11.650   0.845   0.926  0.00  0.00    -0.166 F 
ATOM     19  F   LIG    1       11.441  -1.033   1.992  0.00  0.00    -0.166 F 
ATOM     20  F   LIG    1       10.145   0.625   2.454  0.00  0.00    -0.166 F 
ENDBRANCH  12  17
ENDBRANCH   7  10
ENDBRANCH   3   6
BRANCH   1  22
ATOM     21  C   LIG    1       -0.539  -0.883   1.233  0.00  0.00    +0.035 C 
ATOM     22  C   LIG    1       -0.038  -0.074   0.025  0.00  0.00    +0.126 C 
BRANCH  22  23
ATOM     23  N   LIG    1       -0.556   1.297   0.094  0.00  0.00    -0.301 N 
ATOM     24  H   LIG    1       -0.496   1.742   0.998  0.00  0.00    +0.150 HD
ATOM     25  C   LIG    1       -0.759   2.096  -0.969  0.00  0.00    +0.265 C 
ATOM     26  O   LIG    1       -0.608   1.755  -2.142  0.00  0.00    -0.268 OA
BRANCH  25  27
ATOM     27  C   LIG    1       -1.234   3.476  -0.627  0.00  0.00    +0.149 A 
ATOM     28  N   LIG    1       -0.258   4.412  -0.476  0.00  0.00    -0.229 NA
ATOM     29  C   LIG    1       -0.670   5.672  -0.190  0.00  0.00    +0.224 A 
ATOM     30  N   LIG    1       -1.955   6.079  -0.045  0.00  0.00    -0.220 NA
ATOM     31  C   LIG    1       -2.914   5.130  -0.204  0.00  0.00    +0.139 A 
ATOM     32  C   LIG    1       -2.602   3.792  -0.504  0.00  0.00    +0.111 A 
ATOM     33 CL   LIG    1       -3.849   2.597  -0.705  0.00  0.00    -0.078 Cl
BRANCH  31  34
ATOM     34  N   LIG    1       -4.235   5.554  -0.057  0.00  0.00    -0.342 N 
ATOM     35  H   LIG    1       -4.423   6.526   0.144  0.00  0.00    +0.144 HD
ATOM     36  H   LIG    1       -4.986   4.889  -0.173  0.00  0.00    +0.144 HD
ENDBRANCH  31  34
ENDBRANCH  25  27
ENDBRANCH  22  23
ENDBRANCH   1  22
TORSDOF 7
