REMARK  Name = DB15192
REMARK                            x       y       z     vdW  Elec       q    Type
REMARK                         _______ _______ _______ _____ _____    ______ ____
ROOT
ATOM      1  C   LIG    1        1.468   0.058   0.209  0.00  0.00    +0.030 A 
ATOM      2  C   LIG    1        2.174  -1.124  -0.050  0.00  0.00    +0.024 A 
ATOM      3  C   LIG    1        3.566  -1.133  -0.078  0.00  0.00    +0.010 A 
ATOM      4  C   LIG    1        4.292   0.041   0.146  0.00  0.00    -0.018 A 
ATOM      5  C   LIG    1        3.590   1.224   0.399  0.00  0.00    +0.010 A 
ATOM      6  C   LIG    1        2.199   1.234   0.425  0.00  0.00    +0.024 A 
ENDROOT
BRANCH   1  11
ATOM      7  C   LIG    1       -2.507   3.346  -1.941  0.00  0.00    +0.105 C 
ATOM      8  N   LIG    1       -2.091   2.150  -1.221  0.00  0.00    -0.303 NA
ATOM      9  C   LIG    1       -0.837   2.321  -0.499  0.00  0.00    +0.106 C 
ATOM     10  C   LIG    1       -0.793   1.212   0.575  0.00  0.00    +0.092 C 
ATOM     11  N   LIG    1        0.060   0.073   0.202  0.00  0.00    -0.325 N 
ATOM     12  C   LIG    1       -0.798  -1.112   0.226  0.00  0.00    +0.106 C 
ATOM     13  C   LIG    1       -2.250  -0.671   0.101  0.00  0.00    +0.025 C 
ATOM     14  C   LIG    1       -2.247   0.742   0.675  0.00  0.00    +0.026 C 
ATOM     15  C   LIG    1       -3.023   1.754  -0.177  0.00  0.00    +0.089 C 
ENDBRANCH   1  11
BRANCH   4  16
ATOM     16  C   LIG    1        5.782   0.035   0.110  0.00  0.00    -0.018 A 
ATOM     17  C   LIG    1        6.519   0.742   1.067  0.00  0.00    +0.010 A 
ATOM     18  C   LIG    1        7.910   0.747   1.031  0.00  0.00    +0.028 A 
ATOM     19  C   LIG    1        8.592   0.044   0.029  0.00  0.00    +0.069 A 
ATOM     20  C   LIG    1        7.859  -0.673  -0.925  0.00  0.00    +0.028 A 
ATOM     21  C   LIG    1        6.468  -0.674  -0.883  0.00  0.00    +0.010 A 
BRANCH  19  22
ATOM     22  N   LIG    1       10.008   0.043  -0.017  0.00  0.00    -0.197 N 
ATOM     23  C   LIG    1       10.711   1.238  -0.056  0.00  0.00    +0.272 A 
ATOM     24  O   LIG    1       10.226   2.371  -0.104  0.00  0.00    -0.266 OA
ATOM     25  C   LIG    1       12.151   1.015  -0.082  0.00  0.00    +0.073 A 
ATOM     26  C   LIG    1       12.696  -0.223  -0.136  0.00  0.00    +0.027 A 
ATOM     27  C   LIG    1       11.854  -1.387  -0.140  0.00  0.00    +0.133 A 
ATOM     28  N   LIG    1       10.576  -1.243  -0.081  0.00  0.00    -0.172 NA
ENDBRANCH  19  22
ENDBRANCH   4  16
TORSDOF 3
