REMARK  Name = DB15351
REMARK                            x       y       z     vdW  Elec       q    Type
REMARK                         _______ _______ _______ _____ _____    ______ ____
ROOT
ATOM      1  O   LIG    1        1.289   0.241  -0.136  0.00  0.00    -0.365 OA
ENDROOT
BRANCH   1   2
ATOM      2  C   LIG    1       -0.120   0.428  -0.278  0.00  0.00    +0.148 C 
ATOM      3  C   LIG    1       -0.477   1.911  -0.490  0.00  0.00    +0.043 C 
BRANCH   2  22
ATOM      4  C   LIG    1       -0.946  -3.098  -6.836  0.00  0.00    +0.009 A 
ATOM      5  C   LIG    1       -1.238  -2.748  -5.524  0.00  0.00    +0.048 A 
ATOM      6  N   LIG    1       -2.333  -3.418  -5.113  0.00  0.00    -0.354 N 
ATOM      7  H   LIG    1       -2.759  -3.357  -4.203  0.00  0.00    +0.166 HD
ATOM      8  C   LIG    1       -2.765  -4.176  -6.141  0.00  0.00    +0.045 A 
ATOM      9  C   LIG    1       -3.880  -5.019  -6.107  0.00  0.00    +0.051 C 
ATOM     10  C   LIG    1       -4.752  -5.257  -5.041  0.00  0.00    +0.045 A 
ATOM     11  C   LIG    1       -5.852  -6.097  -5.064  0.00  0.00    -0.022 A 
ATOM     12  C   LIG    1       -6.317  -6.912  -6.263  0.00  0.00    +0.046 C 
ATOM     13  C   LIG    1       -6.435  -6.024  -3.812  0.00  0.00    -0.019 A 
ATOM     14  C   LIG    1       -5.660  -5.152  -3.066  0.00  0.00    +0.045 A 
ATOM     15  C   LIG    1       -5.885  -4.785  -1.738  0.00  0.00    +0.051 C 
ATOM     16  C   LIG    1       -5.162  -3.879  -0.958  0.00  0.00    +0.045 A 
ATOM     17  N   LIG    1       -4.075  -3.197  -1.368  0.00  0.00    -0.355 N 
ATOM     18  H   LIG    1       -3.645  -3.259  -2.276  0.00  0.00    +0.166 HD
ATOM     19  C   LIG    1       -3.675  -2.410  -0.351  0.00  0.00    +0.045 A 
ATOM     20  C   LIG    1       -2.579  -1.544  -0.386  0.00  0.00    +0.052 C 
ATOM     21  C   LIG    1       -1.692  -1.309  -1.442  0.00  0.00    +0.048 A 
ATOM     22  C   LIG    1       -0.604  -0.447  -1.436  0.00  0.00    +0.009 A 
ATOM     23  C   LIG    1       -0.028  -0.538  -2.691  0.00  0.00    -0.020 A 
ATOM     24  C   LIG    1        1.197   0.205  -3.206  0.00  0.00    +0.046 C 
ATOM     25  C   LIG    1       -0.775  -1.452  -3.414  0.00  0.00    +0.045 A 
ATOM     26  N   LIG    1       -1.779  -1.908  -2.646  0.00  0.00    -0.354 N 
ATOM     27  H   LIG    1       -2.476  -2.582  -2.922  0.00  0.00    +0.166 HD
ATOM     28  C   LIG    1       -4.521  -2.593   0.731  0.00  0.00    -0.022 A 
ATOM     29  C   LIG    1       -4.439  -1.895   2.081  0.00  0.00    +0.046 C 
ATOM     30  C   LIG    1       -5.457  -3.533   0.350  0.00  0.00    -0.019 A 
ATOM     31  N   LIG    1       -4.648  -4.694  -3.825  0.00  0.00    -0.355 N 
ATOM     32  H   LIG    1       -3.938  -4.042  -3.533  0.00  0.00    +0.166 HD
ATOM     33  C   LIG    1       -0.525  -1.841  -4.734  0.00  0.00    +0.052 C 
ATOM     34  C   LIG    1       -1.935  -3.982  -7.232  0.00  0.00    -0.020 A 
ATOM     35  C   LIG    1       -2.087  -4.628  -8.603  0.00  0.00    +0.046 C 
BRANCH   4  37
ATOM     36  C   LIG    1       -0.173  -1.413  -8.585  0.00  0.00    +0.043 C 
ATOM     37  C   LIG    1        0.228  -2.587  -7.678  0.00  0.00    +0.144 C 
BRANCH  37  38
ATOM     38  O   LIG    1        0.839  -3.597  -8.456  0.00  0.00    -0.387 OA
ATOM     39  H   LIG    1        0.252  -3.823  -9.182  0.00  0.00    +0.210 HD
ENDBRANCH  37  38
ENDBRANCH   4  37
BRANCH  13  40
ATOM     40  C   LIG    1       -7.709  -6.729  -3.337  0.00  0.00    +0.048 C 
BRANCH  40  41
ATOM     41  C   LIG    1       -8.929  -5.787  -3.136  0.00  0.00    +0.125 C 
BRANCH  41  42
ATOM     42  C   LIG    1       -9.257  -4.915  -4.368  0.00  0.00    +0.305 C 
ATOM     43  O   LIG    1       -9.434  -5.488  -5.467  0.00  0.00    -0.251 OA
BRANCH  42  44
ATOM     44  O   LIG    1       -9.328  -3.678  -4.192  0.00  0.00    -0.481 OA
ATOM     45  H   LIG    1       -9.524  -3.112  -4.912  0.00  0.00    +0.295 HD
ENDBRANCH  42  44
ENDBRANCH  41  42
ENDBRANCH  40  41
ENDBRANCH  13  40
BRANCH  30  46
ATOM     46  C   LIG    1       -6.606  -4.070   1.196  0.00  0.00    +0.048 C 
BRANCH  46  47
ATOM     47  C   LIG    1       -7.939  -3.352   0.893  0.00  0.00    +0.125 C 
BRANCH  47  48
ATOM     48  C   LIG    1       -9.144  -3.916   1.657  0.00  0.00    +0.305 C 
ATOM     49  O   LIG    1       -9.079  -4.835   2.473  0.00  0.00    -0.251 OA
BRANCH  48  50
ATOM     50  O   LIG    1      -10.292  -3.266   1.310  0.00  0.00    -0.481 OA
ATOM     51  H   LIG    1      -11.060  -3.608   1.772  0.00  0.00    +0.295 HD
ENDBRANCH  48  50
ENDBRANCH  47  48
ENDBRANCH  46  47
ENDBRANCH  30  46
ENDBRANCH   2  22
ENDBRANCH   1   2
BRANCH   1  52
ATOM     52  C   LIG    1        1.874   0.528   1.134  0.00  0.00    +0.148 C 
ATOM     53  C   LIG    1        3.398   0.560   0.952  0.00  0.00    +0.043 C 
BRANCH  52  54
ATOM     54  C   LIG    1        1.455  -0.496   2.198  0.00  0.00    +0.009 A 
ATOM     55  C   LIG    1        1.282  -1.857   2.020  0.00  0.00    -0.020 A 
ATOM     56  C   LIG    1        1.481  -2.645   0.732  0.00  0.00    +0.046 C 
ATOM     57  C   LIG    1        0.888  -2.377   3.241  0.00  0.00    +0.045 A 
ATOM     58  C   LIG    1        0.594  -3.720   3.495  0.00  0.00    +0.051 C 
ATOM     59  C   LIG    1        0.208  -4.305   4.704  0.00  0.00    +0.045 A 
ATOM     60  C   LIG    1       -0.059  -5.648   4.916  0.00  0.00    -0.022 A 
ATOM     61  C   LIG    1        0.022  -6.773   3.896  0.00  0.00    +0.046 C 
ATOM     62  C   LIG    1       -0.417  -5.777   6.244  0.00  0.00    -0.019 A 
ATOM     63  C   LIG    1       -0.336  -4.513   6.801  0.00  0.00    +0.045 A 
ATOM     64  C   LIG    1       -0.596  -4.192   8.135  0.00  0.00    +0.051 C 
ATOM     65  C   LIG    1       -0.503  -2.944   8.756  0.00  0.00    +0.045 A 
ATOM     66  C   LIG    1       -0.757  -2.697  10.094  0.00  0.00    -0.019 A 
ATOM     67  C   LIG    1       -0.526  -1.352  10.298  0.00  0.00    -0.022 A 
ATOM     68  C   LIG    1       -0.659  -0.608  11.619  0.00  0.00    +0.046 C 
ATOM     69  C   LIG    1       -0.159  -0.818   9.073  0.00  0.00    +0.045 A 
ATOM     70  C   LIG    1        0.149   0.523   8.826  0.00  0.00    +0.052 C 
ATOM     71  C   LIG    1        0.531   1.117   7.618  0.00  0.00    +0.048 A 
ATOM     72  C   LIG    1        0.833   2.457   7.414  0.00  0.00    +0.009 A 
ATOM     73  C   LIG    1        1.120   2.589   6.066  0.00  0.00    -0.020 A 
ATOM     74  C   LIG    1        1.478   3.871   5.325  0.00  0.00    +0.046 C 
ATOM     75  C   LIG    1        1.026   1.327   5.505  0.00  0.00    +0.045 A 
ATOM     76  C   LIG    1        1.270   1.009   4.165  0.00  0.00    +0.052 C 
ATOM     77  N   LIG    1        0.662   0.449   6.456  0.00  0.00    -0.354 N 
ATOM     78  H   LIG    1        0.513  -0.538   6.321  0.00  0.00    +0.166 HD
ATOM     79  N   LIG    1       -0.144  -1.798   8.148  0.00  0.00    -0.355 N 
ATOM     80  H   LIG    1        0.094  -1.693   7.175  0.00  0.00    +0.166 HD
ATOM     81  N   LIG    1        0.040  -3.633   5.857  0.00  0.00    -0.355 N 
ATOM     82  H   LIG    1        0.174  -2.643   5.991  0.00  0.00    +0.166 HD
ATOM     83  N   LIG    1        0.836  -1.384   4.151  0.00  0.00    -0.354 N 
ATOM     84  H   LIG    1        0.587  -1.482   5.122  0.00  0.00    +0.166 HD
ATOM     85  C   LIG    1        1.188  -0.238   3.535  0.00  0.00    +0.048 A 
BRANCH  72  86
ATOM     86  C   LIG    1        0.837   3.565   8.471  0.00  0.00    +0.144 C 
ATOM     87  C   LIG    1       -0.462   4.387   8.463  0.00  0.00    +0.043 C 
BRANCH  86  88
ATOM     88  O   LIG    1        1.946   4.434   8.361  0.00  0.00    -0.387 OA
ATOM     89  H   LIG    1        1.816   5.006   7.601  0.00  0.00    +0.210 HD
ENDBRANCH  86  88
ENDBRANCH  72  86
BRANCH  62  90
ATOM     90  C   LIG    1       -0.810  -7.058   6.968  0.00  0.00    +0.048 C 
BRANCH  90  91
ATOM     91  C   LIG    1        0.353  -7.630   7.822  0.00  0.00    +0.125 C 
BRANCH  91  92
ATOM     92  C   LIG    1       -0.037  -8.800   8.756  0.00  0.00    +0.305 C 
ATOM     93  O   LIG    1        0.797  -9.099   9.640  0.00  0.00    -0.251 OA
BRANCH  92  94
ATOM     94  O   LIG    1       -1.127  -9.396   8.591  0.00  0.00    -0.481 OA
ATOM     95  H   LIG    1       -1.364 -10.104   9.156  0.00  0.00    +0.295 HD
ENDBRANCH  92  94
ENDBRANCH  91  92
ENDBRANCH  90  91
ENDBRANCH  62  90
BRANCH  66  96
ATOM     96  C   LIG    1       -1.199  -3.725  11.131  0.00  0.00    +0.048 C 
BRANCH  96  97
ATOM     97  C   LIG    1       -0.025  -4.590  11.636  0.00  0.00    +0.125 C 
BRANCH  97  98
ATOM     98  C   LIG    1       -0.493  -5.827  12.408  0.00  0.00    +0.305 C 
ATOM     99  O   LIG    1       -0.439  -5.920  13.632  0.00  0.00    -0.251 OA
BRANCH  98 100
ATOM    100  O   LIG    1       -0.965  -6.792  11.566  0.00  0.00    -0.481 OA
ATOM    101  H   LIG    1       -1.241  -7.588  12.028  0.00  0.00    +0.295 HD
ENDBRANCH  98 100
ENDBRANCH  97  98
ENDBRANCH  96  97
ENDBRANCH  66  96
ENDBRANCH  52  54
ENDBRANCH   1  52
TORSDOF 24
