REMARK  Name = DB15102
REMARK                            x       y       z     vdW  Elec       q    Type
REMARK                         _______ _______ _______ _____ _____    ______ ____
ROOT
ATOM      1  N   LIG    1       -1.871  -1.397  -0.783  0.00  0.00    -0.254 N 
ATOM      2  C   LIG    1       -2.706  -0.371  -0.247  0.00  0.00    +0.055 A 
ATOM      3  C   LIG    1       -4.114  -0.458  -0.030  0.00  0.00    +0.041 A 
ATOM      4  C   LIG    1       -5.171  -1.422  -0.216  0.00  0.00    +0.035 A 
ATOM      5  C   LIG    1       -6.361  -0.871   0.229  0.00  0.00    +0.032 A 
ATOM      6  N   LIG    1       -6.093   0.399   0.677  0.00  0.00    -0.342 N 
ATOM      7  H   LIG    1       -6.811   1.000   1.055  0.00  0.00    +0.167 HD
ATOM      8  C   LIG    1       -4.755   0.683   0.537  0.00  0.00    +0.140 A 
ATOM      9  N   LIG    1       -4.172   1.831   0.881  0.00  0.00    -0.237 NA
ATOM     10  C   LIG    1       -2.838   1.876   0.649  0.00  0.00    +0.120 A 
ATOM     11  C   LIG    1       -2.084   0.835   0.106  0.00  0.00    +0.011 A 
ATOM     12  C   LIG    1       -0.598   0.961  -0.156  0.00  0.00    +0.154 C 
ATOM     13  N   LIG    1        0.091  -0.350  -0.099  0.00  0.00    -0.245 N 
ATOM     14  C   LIG    1       -0.495  -1.443  -0.705  0.00  0.00    +0.314 C 
ATOM     15  O   LIG    1        0.166  -2.432  -1.046  0.00  0.00    -0.252 OA
ENDROOT
BRANCH  13  16
ATOM     16  C   LIG    1        1.499  -0.211  -0.040  0.00  0.00    +0.116 A 
ATOM     17  C   LIG    1        2.086   0.040   1.208  0.00  0.00    +0.189 A 
ATOM     18  F   LIG    1        1.309   0.126   2.317  0.00  0.00    -0.200 F 
ATOM     19  C   LIG    1        3.469   0.193   1.334  0.00  0.00    +0.161 A 
ATOM     20  C   LIG    1        4.269   0.100   0.184  0.00  0.00    +0.097 A 
ATOM     21  C   LIG    1        3.703  -0.133  -1.079  0.00  0.00    +0.161 A 
ATOM     22  C   LIG    1        2.317  -0.282  -1.183  0.00  0.00    +0.189 A 
ATOM     23  F   LIG    1        1.770  -0.464  -2.410  0.00  0.00    -0.200 F 
BRANCH  19  24
ATOM     24  O   LIG    1        3.961   0.428   2.605  0.00  0.00    -0.492 OA
ATOM     25  C   LIG    1        5.362   0.588   2.797  0.00  0.00    +0.277 C 
ENDBRANCH  19  24
BRANCH  21  26
ATOM     26  O   LIG    1        4.431  -0.220  -2.252  0.00  0.00    -0.492 OA
ATOM     27  C   LIG    1        5.846  -0.071  -2.211  0.00  0.00    +0.277 C 
ENDBRANCH  21  26
ENDBRANCH  13  16
BRANCH   1  29
ATOM     28  C   LIG    1       -2.768  -3.747  -0.508  0.00  0.00    +0.025 C 
ATOM     29  C   LIG    1       -2.520  -2.550  -1.447  0.00  0.00    +0.112 C 
ENDBRANCH   1  29
BRANCH   5  30
ATOM     30  C   LIG    1       -7.767  -1.434   0.282  0.00  0.00    +0.137 C 
BRANCH  30  31
ATOM     31  N   LIG    1       -8.143  -1.858   1.634  0.00  0.00    -0.292 NA
ATOM     32  C   LIG    1       -7.415  -3.063   2.062  0.00  0.00    +0.113 C 
ATOM     33  C   LIG    1       -7.884  -3.547   3.451  0.00  0.00    +0.175 C 
ATOM     34  O   LIG    1       -9.294  -3.744   3.450  0.00  0.00    -0.377 OA
ATOM     35  C   LIG    1      -10.008  -2.554   3.132  0.00  0.00    +0.175 C 
ATOM     36  C   LIG    1       -9.597  -2.050   1.732  0.00  0.00    +0.113 C 
ENDBRANCH  30  31
ENDBRANCH   5  30
TORSDOF 6
