REMARK  Name = DB15456
REMARK                            x       y       z     vdW  Elec       q    Type
REMARK                         _______ _______ _______ _____ _____    ______ ____
ROOT
ATOM      1  N   LIG    1       -0.696  -1.375  -0.205  0.00  0.00    -0.209 NA
ATOM      2  C   LIG    1       -2.052  -1.437  -0.210  0.00  0.00    +0.144 A 
ATOM      3  C   LIG    1       -2.854  -0.276  -0.154  0.00  0.00    +0.116 A 
ATOM      4  C   LIG    1       -2.174   0.957  -0.121  0.00  0.00    +0.144 A 
ATOM      5  N   LIG    1       -0.820   1.033  -0.116  0.00  0.00    -0.209 NA
ATOM      6  C   LIG    1       -0.132  -0.140  -0.155  0.00  0.00    +0.184 A 
ENDROOT
BRANCH   6   7
ATOM      7  C   LIG    1        1.369  -0.075  -0.150  0.00  0.00    +0.139 A 
ATOM      8  N   LIG    1        2.015   1.068  -0.042  0.00  0.00    -0.165 NA
ATOM      9  N   LIG    1        3.338   0.814  -0.054  0.00  0.00    -0.241 N 
ATOM     10  C   LIG    1        3.584  -0.536  -0.201  0.00  0.00    +0.159 A 
ATOM     11  N   LIG    1        4.769  -1.156  -0.276  0.00  0.00    -0.233 NA
ATOM     12  C   LIG    1        4.694  -2.506  -0.416  0.00  0.00    +0.151 A 
ATOM     13  C   LIG    1        3.503  -3.231  -0.482  0.00  0.00    +0.142 A 
ATOM     14  F   LIG    1        3.530  -4.576  -0.622  0.00  0.00    -0.204 F 
ATOM     15  C   LIG    1        2.282  -2.556  -0.402  0.00  0.00    +0.053 A 
ATOM     16  C   LIG    1        2.313  -1.156  -0.259  0.00  0.00    +0.052 A 
BRANCH   9  17
ATOM     17  C   LIG    1        4.290   1.920   0.000  0.00  0.00    +0.183 C 
BRANCH  17  18
ATOM     18  C   LIG    1        4.959   2.215  -1.339  0.00  0.00    +0.009 A 
ATOM     19  C   LIG    1        6.343   2.059  -1.474  0.00  0.00    +0.008 A 
ATOM     20  C   LIG    1        6.968   2.323  -2.693  0.00  0.00    +0.000 A 
ATOM     21  C   LIG    1        6.214   2.750  -3.786  0.00  0.00    +0.003 A 
ATOM     22  C   LIG    1        4.835   2.915  -3.658  0.00  0.00    +0.039 A 
ATOM     23  C   LIG    1        4.207   2.651  -2.440  0.00  0.00    +0.128 A 
ATOM     24  F   LIG    1        2.870   2.825  -2.335  0.00  0.00    -0.205 F 
ENDBRANCH  17  18
ENDBRANCH   9  17
ENDBRANCH   6   7
BRANCH   3  25
ATOM     25  N   LIG    1       -4.261  -0.308  -0.175  0.00  0.00    -0.245 N 
ATOM     26  H   LIG    1       -4.723   0.274  -0.859  0.00  0.00    +0.158 HD
ATOM     27  C   LIG    1       -5.066  -0.919   0.777  0.00  0.00    +0.404 C 
ATOM     28  O   LIG    1       -4.681  -1.559   1.760  0.00  0.00    -0.226 OA
BRANCH  27  29
ATOM     29  O   LIG    1       -6.357  -0.694   0.463  0.00  0.00    -0.453 OA
ATOM     30  C   LIG    1       -7.403  -1.200   1.282  0.00  0.00    +0.282 C 
ENDBRANCH  27  29
ENDBRANCH   3  25
BRANCH   2  31
ATOM     31  N   LIG    1       -2.592  -2.721  -0.304  0.00  0.00    -0.342 N 
ATOM     32  H   LIG    1       -1.973  -3.518  -0.333  0.00  0.00    +0.144 HD
ATOM     33  H   LIG    1       -3.595  -2.839  -0.282  0.00  0.00    +0.144 HD
ENDBRANCH   2  31
BRANCH   4  34
ATOM     34  N   LIG    1       -2.851   2.178  -0.083  0.00  0.00    -0.342 N 
ATOM     35  H   LIG    1       -2.317   3.035  -0.050  0.00  0.00    +0.144 HD
ATOM     36  H   LIG    1       -3.860   2.189  -0.068  0.00  0.00    +0.144 HD
ENDBRANCH   4  34
TORSDOF 7
