REMARK  Name = DB15425
REMARK                            x       y       z     vdW  Elec       q    Type
REMARK                         _______ _______ _______ _____ _____    ______ ____
ROOT
ATOM      1  C   LIG    1        1.417  -0.037  -0.039  0.00  0.00    +0.219 A 
ATOM      2  N   LIG    1        2.041  -1.242  -0.130  0.00  0.00    -0.195 NA
ATOM      3  C   LIG    1        3.370  -1.178   0.018  0.00  0.00    +0.167 A 
ATOM      4  N   LIG    1        4.315  -2.189  -0.019  0.00  0.00    -0.312 N 
ATOM      5  C   LIG    1        5.525  -1.558   0.193  0.00  0.00    +0.201 A 
ATOM      6  N   LIG    1        5.449  -0.261   0.359  0.00  0.00    -0.231 NA
ATOM      7  C   LIG    1        4.109   0.007   0.252  0.00  0.00    +0.148 A 
ATOM      8  C   LIG    1        3.371   1.201   0.332  0.00  0.00    +0.152 A 
ATOM      9  N   LIG    1        2.017   1.167   0.182  0.00  0.00    -0.197 NA
ENDROOT
BRANCH   4  10
ATOM     10  C   LIG    1        4.120  -3.626  -0.234  0.00  0.00    +0.084 C 
ATOM     11  C   LIG    1        3.262  -4.228   0.896  0.00  0.00    +0.030 C 
ATOM     12  C   LIG    1        3.528  -3.885  -1.633  0.00  0.00    +0.030 C 
ENDBRANCH   4  10
BRANCH   1  13
ATOM     13  N   LIG    1        0.024  -0.092  -0.202  0.00  0.00    -0.308 N 
ATOM     14  H   LIG    1       -0.402  -0.995  -0.355  0.00  0.00    +0.149 HD
BRANCH  13  15
ATOM     15  C   LIG    1       -0.855   1.082  -0.161  0.00  0.00    +0.101 C 
BRANCH  15  17
ATOM     16  C   LIG    1       -0.128   1.897  -2.520  0.00  0.00    +0.006 C 
ATOM     17  C   LIG    1       -1.288   1.494  -1.594  0.00  0.00    +0.021 C 
ENDBRANCH  15  17
BRANCH  15  18
ATOM     18  C   LIG    1       -2.058   0.837   0.794  0.00  0.00    +0.132 C 
ATOM     19  C   LIG    1       -1.637   0.597   2.257  0.00  0.00    +0.039 C 
BRANCH  18  20
ATOM     20  O   LIG    1       -2.946   1.940   0.798  0.00  0.00    -0.390 OA
ATOM     21  H   LIG    1       -3.239   2.098  -0.103  0.00  0.00    +0.210 HD
ENDBRANCH  18  20
ENDBRANCH  15  18
ENDBRANCH  13  15
ENDBRANCH   1  13
BRANCH   8  22
ATOM     22  N   LIG    1        4.024   2.421   0.571  0.00  0.00    -0.323 N 
ATOM     23  H   LIG    1        5.033   2.439   0.606  0.00  0.00    +0.148 HD
BRANCH  22  24
ATOM     24  C   LIG    1        3.302   3.688   0.550  0.00  0.00    +0.140 C 
BRANCH  24  25
ATOM     25  C   LIG    1        4.199   4.816   1.041  0.00  0.00    -0.009 A 
ATOM     26  C   LIG    1        4.850   5.633   0.109  0.00  0.00    +0.116 A 
ATOM     27  N   LIG    1        5.657   6.666   0.459  0.00  0.00    -0.260 NA
ATOM     28  C   LIG    1        5.832   6.912   1.782  0.00  0.00    +0.038 A 
ATOM     29  C   LIG    1        6.743   8.077   2.123  0.00  0.00    +0.065 C 
ATOM     30  C   LIG    1        5.220   6.151   2.781  0.00  0.00    +0.026 A 
ATOM     31  C   LIG    1        4.389   5.088   2.409  0.00  0.00    -0.043 A 
ATOM     32  C   LIG    1        3.718   4.252   3.490  0.00  0.00    +0.044 C 
ENDBRANCH  24  25
ENDBRANCH  22  24
ENDBRANCH   8  22
TORSDOF 9
