REMARK  Name = DB15098
REMARK                            x       y       z     vdW  Elec       q    Type
REMARK                         _______ _______ _______ _____ _____    ______ ____
ROOT
ATOM      1  C   LIG    1        0.026   0.172   0.283  0.00  0.00    +0.157 C 
ENDROOT
BRANCH   1   4
ATOM      2  C   LIG    1       -0.848   1.314  -2.465  0.00  0.00    +0.086 C 
ATOM      3  C   LIG    1       -0.998   2.022  -1.132  0.00  0.00    +0.108 A 
ATOM      4  N   LIG    1       -0.610   1.481   0.081  0.00  0.00    -0.307 N 
ATOM      5  C   LIG    1       -0.928   2.460   1.013  0.00  0.00    +0.211 A 
ATOM      6  C   LIG    1       -1.476   3.496   0.267  0.00  0.00    +0.164 A 
ATOM      7  N   LIG    1       -1.517   3.222  -1.020  0.00  0.00    -0.239 NA
BRANCH   5   8
ATOM      8  N   LIG    1       -0.710   2.365   2.430  0.00  0.00    +0.025 N 
ATOM      9  O   LIG    1       -0.300   1.319   2.921  0.00  0.00    -0.128 OA
BRANCH   8  10
ATOM     10  O   LIG    1       -0.967   3.367   3.089  0.00  0.00    -0.395 OA
ATOM     11  H   LIG    1       -1.278   4.141   2.663  0.00  0.00    +0.329 HD
ENDBRANCH   8  10
ENDBRANCH   5   8
ENDBRANCH   1   4
BRANCH   1  12
ATOM     12  C   LIG    1        1.552   0.296   0.510  0.00  0.00    +0.148 C 
BRANCH  12  13
ATOM     13  O   LIG    1        2.168   0.817  -0.656  0.00  0.00    -0.389 OA
ATOM     14  H   LIG    1        2.095   0.166  -1.358  0.00  0.00    +0.210 HD
ENDBRANCH  12  13
BRANCH  12  15
ATOM     15  C   LIG    1        2.176  -1.074   0.879  0.00  0.00    +0.117 C 
BRANCH  15  16
ATOM     16  N   LIG    1        3.633  -1.062   1.076  0.00  0.00    -0.295 NA
ATOM     17  C   LIG    1        4.139  -2.434   1.212  0.00  0.00    +0.112 C 
ATOM     18  C   LIG    1        5.659  -2.460   1.477  0.00  0.00    +0.175 C 
ATOM     19  O   LIG    1        5.966  -1.663   2.615  0.00  0.00    -0.377 OA
ATOM     20  C   LIG    1        5.583  -0.304   2.438  0.00  0.00    +0.175 C 
ATOM     21  C   LIG    1        4.062  -0.204   2.192  0.00  0.00    +0.112 C 
ENDBRANCH  15  16
ENDBRANCH  12  15
ENDBRANCH   1  12
TORSDOF 7
