REMARK  Name = DB15122
REMARK                            x       y       z     vdW  Elec       q    Type
REMARK                         _______ _______ _______ _____ _____    ______ ____
ROOT
ATOM      1  N   LIG    1        3.543  -1.424  -0.018  0.00  0.00    -0.259 N 
ATOM      2  C   LIG    1        4.145  -1.428  -1.270  0.00  0.00    +0.282 A 
ATOM      3  O   LIG    1        3.534  -1.402  -2.341  0.00  0.00    -0.265 OA
ATOM      4  C   LIG    1        5.584  -1.467  -1.122  0.00  0.00    +0.151 A 
ATOM      5  N   LIG    1        6.584  -1.489  -2.069  0.00  0.00    -0.328 N 
ATOM      6  C   LIG    1        7.750  -1.518  -1.339  0.00  0.00    +0.202 A 
ATOM      7  N   LIG    1        7.559  -1.520  -0.041  0.00  0.00    -0.218 NA
ATOM      8  C   LIG    1        6.456  -1.476  -3.517  0.00  0.00    +0.150 C 
ATOM      9  C   LIG    1        6.241  -1.488   0.096  0.00  0.00    +0.168 A 
ATOM     10  N   LIG    1        5.493  -1.473   1.267  0.00  0.00    -0.280 N 
ATOM     11  C   LIG    1        6.175  -1.493   2.570  0.00  0.00    +0.155 C 
ATOM     12  C   LIG    1        4.118  -1.425   1.251  0.00  0.00    +0.333 A 
ATOM     13  O   LIG    1        3.458  -1.378   2.297  0.00  0.00    -0.246 OA
ENDROOT
BRANCH   1  14
ATOM     14  C   LIG    1        2.056  -1.394  -0.038  0.00  0.00    +0.130 C 
BRANCH  14  15
ATOM     15  C   LIG    1        1.465   0.030   0.020  0.00  0.00    +0.022 C 
BRANCH  15  16
ATOM     16  C   LIG    1       -0.073   0.029   0.023  0.00  0.00    +0.004 C 
BRANCH  16  17
ATOM     17  C   LIG    1       -0.670   1.450   0.072  0.00  0.00    +0.031 C 
BRANCH  17  19
ATOM     18  C   LIG    1       -2.761   2.925  -0.023  0.00  0.00    +0.037 C 
ATOM     19  C   LIG    1       -2.213   1.491   0.035  0.00  0.00    +0.111 C 
BRANCH  19  20
ATOM     20  O   LIG    1       -2.749   0.852   1.178  0.00  0.00    -0.392 OA
ATOM     21  H   LIG    1       -2.447   1.321   1.959  0.00  0.00    +0.210 HD
ENDBRANCH  19  20
ENDBRANCH  17  19
ENDBRANCH  16  17
ENDBRANCH  15  16
ENDBRANCH  14  15
ENDBRANCH   1  14
TORSDOF 6
