REMARK  Name = DB15288
REMARK                            x       y       z     vdW  Elec       q    Type
REMARK                         _______ _______ _______ _____ _____    ______ ____
ROOT
ATOM      1  C   LIG    1        2.086  -1.601   0.194  0.00  0.00    +0.036 A 
ATOM      2  N   LIG    1        2.868  -2.090  -0.826  0.00  0.00    -0.317 N 
ATOM      3  C   LIG    1        3.240  -3.389  -0.550  0.00  0.00    +0.158 A 
ATOM      4  S   LIG    1        4.168  -4.487  -1.390  0.00  0.00    -0.013 S 
ATOM      5  N   LIG    1        2.653  -3.618   0.649  0.00  0.00    -0.340 N 
ATOM      6  H   LIG    1        2.749  -4.505   1.124  0.00  0.00    +0.167 HD
ATOM      7  C   LIG    1        1.980  -2.566   1.102  0.00  0.00    +0.106 A 
ENDROOT
BRANCH   2   8
ATOM      8  C   LIG    1        3.233  -1.281  -2.019  0.00  0.00    +0.131 C 
ATOM      9  C   LIG    1        2.631  -1.760  -3.360  0.00  0.00    +0.067 C 
ATOM     10  C   LIG    1        3.173  -0.995  -4.556  0.00  0.00    +0.002 A 
ATOM     11  C   LIG    1        2.561  -1.077  -5.812  0.00  0.00    +0.045 A 
ATOM     12  C   LIG    1        3.078  -0.390  -6.910  0.00  0.00    +0.127 A 
ATOM     13  C   LIG    1        4.218   0.397  -6.765  0.00  0.00    +0.080 A 
ATOM     14  C   LIG    1        4.840   0.501  -5.522  0.00  0.00    +0.168 A 
ATOM     15  F   LIG    1        5.939   1.279  -5.388  0.00  0.00    -0.202 F 
ATOM     16  F   LIG    1        2.472  -0.489  -8.115  0.00  0.00    -0.205 F 
ATOM     17  C   LIG    1        4.321  -0.191  -4.423  0.00  0.00    +0.159 A 
ATOM     18  O   LIG    1        4.977   0.003  -3.221  0.00  0.00    -0.487 OA
ATOM     19  C   LIG    1        4.736  -0.961  -2.193  0.00  0.00    +0.254 C 
ENDBRANCH   2   8
BRANCH   1  20
ATOM     20  C   LIG    1        1.536  -0.176   0.202  0.00  0.00    +0.035 C 
BRANCH  20  21
ATOM     21  C   LIG    1        0.348   0.047  -0.757  0.00  0.00    -0.080 C 
BRANCH  21  22
ATOM     22  N   LIG    1       -0.152   1.493  -0.656  0.00  0.00    +0.378 N 
ATOM     23  H   LIG    1       -0.454   1.692   0.287  0.00  0.00    -0.090 HD
ATOM     24  H   LIG    1        0.587   2.136  -0.903  0.00  0.00    -0.090 HD
ATOM     25  H   LIG    1       -0.930   1.637  -1.283  0.00  0.00    -0.090 HD
ENDBRANCH  21  22
ENDBRANCH  20  21
ENDBRANCH   1  20
TORSDOF 4
