REMARK  Name = DB15674
REMARK                            x       y       z     vdW  Elec       q    Type
REMARK                         _______ _______ _______ _____ _____    ______ ____
ROOT
ATOM      1  C   LIG    1       -3.541   2.811   0.088  0.00  0.00    -0.063 A 
ATOM      2  C   LIG    1       -2.320   3.486  -0.016  0.00  0.00    +0.004 A 
ATOM      3  C   LIG    1       -1.102   2.812  -0.135  0.00  0.00    +0.028 A 
ATOM      4  C   LIG    1       -1.154   1.414  -0.142  0.00  0.00    +0.069 A 
ATOM      5  N   LIG    1       -0.196   0.422  -0.246  0.00  0.00    -0.326 N 
ATOM      6  C   LIG    1       -0.868  -0.786  -0.171  0.00  0.00    +0.129 A 
ATOM      7  N   LIG    1       -2.168  -0.642  -0.047  0.00  0.00    -0.231 NA
ATOM      8  C   LIG    1       -2.376   0.708  -0.026  0.00  0.00    +0.090 A 
ATOM      9  C   LIG    1       -3.582   1.412   0.095  0.00  0.00    +0.031 A 
ENDROOT
BRANCH   1  10
ATOM     10  C   LIG    1       -4.832   3.600   0.234  0.00  0.00    -0.051 C 
BRANCH  10  11
ATOM     11  N   LIG    1       -5.493   3.929  -1.110  0.00  0.00    +0.381 N 
ATOM     12  H   LIG    1       -4.868   4.482  -1.679  0.00  0.00    -0.090 HD
ATOM     13  H   LIG    1       -5.722   3.077  -1.602  0.00  0.00    -0.090 HD
ATOM     14  H   LIG    1       -6.343   4.453  -0.959  0.00  0.00    -0.090 HD
ENDBRANCH  10  11
ENDBRANCH   1  10
BRANCH   6  15
ATOM     15  C   LIG    1       -0.142  -2.130  -0.223  0.00  0.00    +0.188 C 
BRANCH  15  16
ATOM     16  N   LIG    1       -1.032  -3.297  -0.168  0.00  0.00    -0.263 N 
ATOM     17  C   LIG    1       -1.838  -3.777  -1.212  0.00  0.00    +0.044 A 
ATOM     18  C   LIG    1       -1.903  -3.357  -2.543  0.00  0.00    +0.062 A 
ATOM     19  C   LIG    1       -2.784  -3.998  -3.418  0.00  0.00    +0.125 A 
ATOM     20  C   LIG    1       -3.587  -5.049  -2.963  0.00  0.00    +0.039 A 
ATOM     21  C   LIG    1       -3.516  -5.465  -1.632  0.00  0.00    +0.009 A 
ATOM     22  F   LIG    1       -2.860  -3.601  -4.708  0.00  0.00    -0.205 F 
ATOM     23  C   LIG    1       -2.634  -4.820  -0.763  0.00  0.00    -0.011 A 
ATOM     24  C   LIG    1       -2.326  -5.010   0.682  0.00  0.00    +0.074 C 
ATOM     25  C   LIG    1       -2.247  -6.339   1.408  0.00  0.00    +0.022 C 
ATOM     26  C   LIG    1       -3.334  -5.348   1.762  0.00  0.00    +0.022 C 
ATOM     27  C   LIG    1       -1.265  -3.953   0.996  0.00  0.00    +0.231 C 
ATOM     28  O   LIG    1       -0.780  -3.804   2.119  0.00  0.00    -0.274 OA
ENDBRANCH  15  16
ENDBRANCH   6  15
BRANCH   5  29
ATOM     29  C   LIG    1        1.247   0.622  -0.353  0.00  0.00    +0.124 C 
BRANCH  29  30
ATOM     30  C   LIG    1        1.875   0.834   1.037  0.00  0.00    +0.030 C 
BRANCH  30  31
ATOM     31  C   LIG    1        3.400   1.047   0.973  0.00  0.00    +0.115 C 
BRANCH  31  32
ATOM     32  C   LIG    1        4.059   1.270   2.346  0.00  0.00    +0.390 C 
ATOM     33  F   LIG    1        3.866   0.229   3.156  0.00  0.00    -0.171 F 
ATOM     34  F   LIG    1        3.569   2.350   2.954  0.00  0.00    -0.171 F 
ATOM     35  F   LIG    1        5.374   1.442   2.217  0.00  0.00    -0.171 F 
ENDBRANCH  31  32
ENDBRANCH  30  31
ENDBRANCH  29  30
ENDBRANCH   5  29
TORSDOF 8
