REMARK  Name = DB15237
REMARK                            x       y       z     vdW  Elec       q    Type
REMARK                         _______ _______ _______ _____ _____    ______ ____
ROOT
ATOM      1  C   LIG    1        1.490   0.023   0.002  0.00  0.00    +0.033 C 
ATOM      2  C   LIG    1        2.077   0.972   1.071  0.00  0.00    +0.035 C 
ATOM      3  C   LIG    1        2.129   2.071  -0.003  0.00  0.00    +0.164 C 
ATOM      4  F   LIG    1        3.214   2.843  -0.004  0.00  0.00    -0.246 F 
ATOM      5  C   LIG    1        2.080   0.966  -1.071  0.00  0.00    +0.035 C 
ENDROOT
BRANCH   1   6
ATOM      6  N   LIG    1       -0.043  -0.076   0.003  0.00  0.00    +0.389 N 
ATOM      7  H   LIG    1       -0.359  -0.569  -0.820  0.00  0.00    -0.088 HD
ATOM      8  H   LIG    1       -0.359  -0.564   0.829  0.00  0.00    -0.088 HD
ATOM      9  H   LIG    1       -0.446   0.849  -0.000  0.00  0.00    -0.088 HD
ENDBRANCH   1   6
BRANCH   1  10
ATOM     10  C   LIG    1        2.007  -1.434   0.009  0.00  0.00    +0.293 C 
ATOM     11  O   LIG    1        2.186  -1.993  -1.097  0.00  0.00    -0.253 OA
BRANCH  10  12
ATOM     12  O   LIG    1        2.162  -1.991   1.119  0.00  0.00    -0.482 OA
ATOM     13  H   LIG    1        2.474  -2.874   1.160  0.00  0.00    +0.295 HD
ENDBRANCH  10  12
ENDBRANCH   1  10
TORSDOF 3
