REMARK  Name = DB15653
REMARK                            x       y       z     vdW  Elec       q    Type
REMARK                         _______ _______ _______ _____ _____    ______ ____
ROOT
ATOM      1  N   LIG    1        0.008  -0.035  -0.193  0.00  0.00    -0.288 N 
ATOM      2  C   LIG    1       -0.752  -1.093   0.156  0.00  0.00    +0.203 A 
ATOM      3  N   LIG    1       -2.021  -0.806   0.303  0.00  0.00    -0.231 NA
ATOM      4  C   LIG    1       -2.090   0.515   0.078  0.00  0.00    +0.147 A 
ATOM      5  C   LIG    1       -3.178   1.415   0.112  0.00  0.00    +0.150 A 
ATOM      6  N   LIG    1       -2.935   2.727  -0.147  0.00  0.00    -0.185 NA
ATOM      7  C   LIG    1       -1.679   3.116  -0.420  0.00  0.00    +0.313 A 
ATOM      8  F   LIG    1       -1.498   4.433  -0.664  0.00  0.00    -0.161 F 
ATOM      9  N   LIG    1       -0.583   2.341  -0.478  0.00  0.00    -0.182 NA
ATOM     10  C   LIG    1       -0.846   1.035  -0.226  0.00  0.00    +0.170 A 
ENDROOT
BRANCH   1  11
ATOM     11  C   LIG    1        1.510  -0.024  -0.400  0.00  0.00    +0.226 C 
ATOM     12  C   LIG    1        2.050   0.715  -1.609  0.00  0.00    +0.090 C 
ATOM     13  C   LIG    1        3.519   0.814  -1.208  0.00  0.00    +0.165 C 
ATOM     14  C   LIG    1        3.488   0.963   0.351  0.00  0.00    +0.180 C 
ATOM     15  O   LIG    1        2.148   0.584   0.676  0.00  0.00    -0.333 OA
BRANCH  13  16
ATOM     16  O   LIG    1        4.258  -0.272  -1.754  0.00  0.00    -0.388 OA
ATOM     17  H   LIG    1        5.133  -0.276  -1.359  0.00  0.00    +0.210 HD
ENDBRANCH  13  16
BRANCH  14  18
ATOM     18  C   LIG    1        4.402   0.053   1.093  0.00  0.00    -0.066 C 
ATOM     19  C   LIG    1        5.143  -0.693   1.714  0.00  0.00    +0.007 C 
ENDBRANCH  14  18
BRANCH  14  20
ATOM     20  C   LIG    1        3.624   2.449   0.791  0.00  0.00    +0.206 C 
BRANCH  20  21
ATOM     21  O   LIG    1        3.474   2.662   2.186  0.00  0.00    -0.391 OA
ATOM     22  H   LIG    1        3.524   3.604   2.360  0.00  0.00    +0.210 HD
ENDBRANCH  20  21
ENDBRANCH  14  20
ENDBRANCH   1  11
BRANCH   5  23
ATOM     23  N   LIG    1       -4.482   1.023   0.406  0.00  0.00    -0.341 N 
ATOM     24  H   LIG    1       -5.214   1.718   0.423  0.00  0.00    +0.144 HD
ATOM     25  H   LIG    1       -4.675   0.052   0.605  0.00  0.00    +0.144 HD
ENDBRANCH   5  23
TORSDOF 6
