REMARK  Name = DB15822
REMARK                            x       y       z     vdW  Elec       q    Type
REMARK                         _______ _______ _______ _____ _____    ______ ____
ROOT
ATOM      1  C   LIG    1       -0.090   0.336   0.128  0.00  0.00    +0.144 C 
ATOM      2  C   LIG    1       -0.332  -0.901  -0.781  0.00  0.00    +0.045 C 
ATOM      3  C   LIG    1       -1.845  -1.156  -0.975  0.00  0.00    +0.014 C 
ATOM      4  C   LIG    1       -2.571  -1.345   0.388  0.00  0.00    +0.057 C 
ATOM      5  C   LIG    1       -2.185  -0.282   1.458  0.00  0.00    +0.014 C 
ATOM      6  C   LIG    1       -0.654  -0.070   1.524  0.00  0.00    +0.045 C 
ENDROOT
BRANCH   4   7
ATOM      7  C   LIG    1       -4.085  -1.486   0.213  0.00  0.00    +0.134 A 
ATOM      8  N   LIG    1       -4.780  -0.365  -0.120  0.00  0.00    -0.237 NA
ATOM      9  C   LIG    1       -6.120  -0.516  -0.280  0.00  0.00    +0.044 A 
ATOM     10  C   LIG    1       -6.889   0.738  -0.653  0.00  0.00    +0.066 C 
ATOM     11  C   LIG    1       -6.761  -1.748  -0.115  0.00  0.00    +0.067 A 
ATOM     12  C   LIG    1       -5.965  -2.850   0.220  0.00  0.00    +0.128 A 
ATOM     13  N   LIG    1       -4.618  -2.725   0.388  0.00  0.00    -0.217 NA
BRANCH  12  14
ATOM     14  N   LIG    1       -6.597  -4.095   0.381  0.00  0.00    -0.283 N 
ATOM     15  H   LIG    1       -7.597  -4.032   0.262  0.00  0.00    +0.155 HD
BRANCH  14  16
ATOM     16  C   LIG    1       -6.048  -5.333   0.630  0.00  0.00    +0.146 A 
ATOM     17  C   LIG    1       -4.707  -5.753   0.712  0.00  0.00    +0.068 A 
ATOM     18  C   LIG    1       -4.724  -7.112   0.973  0.00  0.00    +0.035 A 
ATOM     19  C   LIG    1       -3.642  -8.145   1.168  0.00  0.00    +0.065 C 
ATOM     20  N   LIG    1       -6.058  -7.407   1.031  0.00  0.00    -0.280 N 
ATOM     21  H   LIG    1       -6.430  -8.329   1.207  0.00  0.00    +0.189 HD
ATOM     22  N   LIG    1       -6.855  -6.353   0.825  0.00  0.00    -0.158 NA
ENDBRANCH  14  16
ENDBRANCH  12  14
ENDBRANCH   4   7
BRANCH   1  23
ATOM     23  C   LIG    1        1.446   0.584   0.193  0.00  0.00    +0.245 C 
ATOM     24  N   LIG    1        1.967   1.429  -0.720  0.00  0.00    -0.306 N 
ATOM     25  H   LIG    1        1.346   1.795  -1.427  0.00  0.00    +0.149 HD
ATOM     26  O   LIG    1        2.149  -0.042   0.990  0.00  0.00    -0.273 OA
BRANCH  24  27
ATOM     27  C   LIG    1        3.385   1.778  -0.869  0.00  0.00    +0.102 C 
ATOM     28  C   LIG    1        3.590   2.654  -2.116  0.00  0.00    +0.033 C 
BRANCH  27  29
ATOM     29  C   LIG    1        4.002   2.436   0.369  0.00  0.00    -0.009 A 
ATOM     30  C   LIG    1        3.370   3.502   1.020  0.00  0.00    +0.118 A 
ATOM     31  N   LIG    1        3.876   4.102   2.125  0.00  0.00    -0.236 NA
ATOM     32  C   LIG    1        5.057   3.646   2.630  0.00  0.00    +0.154 A 
ATOM     33  C   LIG    1        5.752   2.580   2.034  0.00  0.00    +0.048 A 
ATOM     34  C   LIG    1        5.214   1.976   0.897  0.00  0.00    +0.010 A 
BRANCH  32  35
ATOM     35  N   LIG    1        5.547   4.305   3.792  0.00  0.00    -0.219 N 
ATOM     36  N   LIG    1        6.709   3.940   4.368  0.00  0.00    -0.171 NA
ATOM     37  C   LIG    1        6.861   4.739   5.399  0.00  0.00    +0.173 A 
ATOM     38  C   LIG    1        5.813   5.652   5.538  0.00  0.00    +0.161 A 
ATOM     39  F   LIG    1        5.662   6.579   6.455  0.00  0.00    -0.202 F 
ATOM     40  C   LIG    1        4.972   5.351   4.484  0.00  0.00    +0.154 A 
ENDBRANCH  32  35
ENDBRANCH  27  29
ENDBRANCH  24  27
ENDBRANCH   1  23
BRANCH   1  42
ATOM     41  C   LIG    1       -0.829   2.692   0.257  0.00  0.00    +0.195 C 
ATOM     42  O   LIG    1       -0.816   1.445  -0.443  0.00  0.00    -0.367 OA
ENDBRANCH   1  42
TORSDOF 8
