REMARK  Name = DB15138
REMARK                            x       y       z     vdW  Elec       q    Type
REMARK                         _______ _______ _______ _____ _____    ______ ____
ROOT
ATOM      1  C   LIG    1        0.089  -2.122  -0.980  0.00  0.00    -0.013 C 
ATOM      2  C   LIG    1       -0.214  -0.653  -1.336  0.00  0.00    -0.066 C 
ATOM      3  N   LIG    1        0.096   0.259  -0.109  0.00  0.00    +0.392 N 
ATOM      4  H   LIG    1       -0.338  -0.158   0.702  0.00  0.00    -0.080 HD
ATOM      5  C   LIG    1       -0.548   1.667  -0.290  0.00  0.00    +0.016 C 
ATOM      6  C   LIG    1       -0.149   2.173  -1.678  0.00  0.00    +0.011 A 
ATOM      7  N   LIG    1       -0.242   3.479  -2.090  0.00  0.00    -0.359 N 
ATOM      8  H   LIG    1       -0.559   4.217  -1.477  0.00  0.00    +0.166 HD
ATOM      9  C   LIG    1        0.146   3.593  -3.407  0.00  0.00    +0.047 A 
ATOM     10  C   LIG    1        0.227   4.709  -4.247  0.00  0.00    +0.026 A 
ATOM     11  C   LIG    1        0.663   4.488  -5.554  0.00  0.00    +0.002 A 
ATOM     12  C   LIG    1        1.006   3.218  -6.010  0.00  0.00    +0.001 A 
ATOM     13  C   LIG    1        0.925   2.106  -5.173  0.00  0.00    +0.010 A 
ATOM     14  C   LIG    1        0.489   2.278  -3.849  0.00  0.00    +0.003 A 
ATOM     15  C   LIG    1        0.279   1.387  -2.743  0.00  0.00    -0.022 A 
ATOM     16  C   LIG    1        0.476  -0.121  -2.626  0.00  0.00    +0.022 C 
ENDROOT
BRANCH   5  17
ATOM     17  C   LIG    1       -2.048   1.609   0.051  0.00  0.00    +0.015 A 
ATOM     18  C   LIG    1       -3.050   1.509  -0.930  0.00  0.00    +0.129 A 
ATOM     19  F   LIG    1       -2.744   1.454  -2.247  0.00  0.00    -0.205 F 
ATOM     20  C   LIG    1       -4.395   1.450  -0.567  0.00  0.00    +0.046 A 
ATOM     21  C   LIG    1       -4.781   1.485   0.779  0.00  0.00    -0.019 A 
ATOM     22  C   LIG    1       -3.784   1.582   1.753  0.00  0.00    +0.046 A 
ATOM     23  C   LIG    1       -2.437   1.642   1.398  0.00  0.00    +0.129 A 
ATOM     24  F   LIG    1       -1.508   1.722   2.378  0.00  0.00    -0.205 F 
BRANCH  21  25
ATOM     25  C   LIG    1       -6.193   1.418   1.213  0.00  0.00    +0.015 C 
ATOM     26  C   LIG    1       -7.284   1.296   0.420  0.00  0.00    +0.092 C 
BRANCH  26  27
ATOM     27  C   LIG    1       -8.754   1.227   0.916  0.00  0.00    +0.330 C 
ATOM     28  O   LIG    1       -9.593   1.154  -0.009  0.00  0.00    -0.246 OA
BRANCH  27  29
ATOM     29  O   LIG    1       -8.938   1.248   2.156  0.00  0.00    -0.478 OA
ATOM     30  H   LIG    1       -9.809   1.208   2.501  0.00  0.00    +0.295 HD
ENDBRANCH  27  29
ENDBRANCH  26  27
ENDBRANCH  21  25
ENDBRANCH   5  17
BRANCH   3  31
ATOM     31  C   LIG    1        1.618   0.368   0.215  0.00  0.00    -0.037 C 
BRANCH  31  32
ATOM     32  C   LIG    1        1.888   0.423   1.744  0.00  0.00    +0.092 C 
ATOM     33  F   LIG    1        1.373   1.539   2.262  0.00  0.00    -0.244 F 
ATOM     34  C   LIG    1        3.409   0.460   1.986  0.00  0.00    +0.045 C 
ATOM     35  C   LIG    1        1.279  -0.787   2.483  0.00  0.00    +0.045 C 
ENDBRANCH  31  32
ENDBRANCH   3  31
TORSDOF 6
