REMARK  Name = DB15243
REMARK                            x       y       z     vdW  Elec       q    Type
REMARK                         _______ _______ _______ _____ _____    ______ ____
ROOT
ATOM      1  C   LIG    1        0.015  -0.077   0.029  0.00  0.00    +0.035 C 
ATOM      2  C   LIG    1       -0.762  -1.219  -0.028  0.00  0.00    +0.053 C 
ATOM      3  C   LIG    1       -0.294  -2.559  -0.065  0.00  0.00    +0.041 C 
ATOM      4  C   LIG    1       -1.071  -3.734  -0.139  0.00  0.00    +0.050 C 
ATOM      5  N   LIG    1       -2.439  -3.800  -0.169  0.00  0.00    -0.300 NA
ATOM      6  H   LIG    1       -3.039  -2.992  -0.138  0.00  0.00    +0.123 HD
ATOM      7  C   LIG    1       -2.883  -5.102  -0.242  0.00  0.00    +0.051 C 
ATOM      8  C   LIG    1       -4.237  -5.515  -0.273  0.00  0.00    +0.041 C 
ATOM      9  C   LIG    1       -5.354  -4.654  -0.222  0.00  0.00    +0.051 C 
ATOM     10  C   LIG    1       -6.707  -4.980  -0.229  0.00  0.00    +0.011 C 
ATOM     11  C   LIG    1       -7.285  -6.377  -0.302  0.00  0.00    +0.015 C 
ATOM     12  C   LIG    1       -7.446  -3.775  -0.145  0.00  0.00    +0.072 C 
ATOM     13  C   LIG    1       -8.792  -3.229  -0.091  0.00  0.00    +0.144 C 
ATOM     14  O   LIG    1       -9.868  -3.822  -0.117  0.00  0.00    -0.297 OA
ATOM     15  C   LIG    1       -8.593  -1.719   0.013  0.00  0.00    +0.086 C 
ATOM     16  C   LIG    1       -7.100  -1.508  -0.006  0.00  0.00    +0.028 C 
ATOM     17  C   LIG    1       -6.407  -0.300   0.058  0.00  0.00    +0.050 C 
ATOM     18  C   LIG    1       -6.994   1.084   0.224  0.00  0.00    +0.017 C 
ATOM     19  C   LIG    1       -5.807   1.971  -0.144  0.00  0.00    +0.013 C 
ATOM     20  C   LIG    1       -5.952   2.634  -1.528  0.00  0.00    +0.010 C 
ATOM     21  C   LIG    1       -4.636   1.015  -0.056  0.00  0.00    +0.046 C 
ATOM     22  C   LIG    1       -3.301   1.416  -0.044  0.00  0.00    +0.040 C 
ATOM     23  C   LIG    1       -2.154   0.584  -0.024  0.00  0.00    +0.050 C 
ATOM     24  N   LIG    1       -5.051  -0.270  -0.011  0.00  0.00    -0.300 NA
ATOM     25  H   LIG    1       -4.658  -0.727   0.811  0.00  0.00    +0.123 HD
ATOM     26  C   LIG    1       -6.535  -2.777  -0.100  0.00  0.00    +0.062 C 
ATOM     27  N   LIG    1       -5.272  -3.279  -0.148  0.00  0.00    -0.299 NA
ATOM     28  H   LIG    1       -4.430  -2.728  -0.124  0.00  0.00    +0.123 HD
ATOM     29  C   LIG    1       -1.753  -5.888  -0.273  0.00  0.00    +0.006 C 
ATOM     30  C   LIG    1       -0.624  -5.035  -0.194  0.00  0.00    +0.004 C 
ATOM     31  C   LIG    1        0.832  -5.463  -0.174  0.00  0.00    +0.014 C 
ATOM     32  N   LIG    1       -2.077  -0.792  -0.044  0.00  0.00    -0.300 NA
ATOM     33  H   LIG    1       -2.881  -1.401  -0.076  0.00  0.00    +0.123 HD
ATOM     34  C   LIG    1       -0.856   1.041   0.007  0.00  0.00    +0.006 C 
ATOM     35  C   LIG    1       -0.444   2.506   0.013  0.00  0.00    +0.014 C 
ENDROOT
BRANCH   1  36
ATOM     36  C   LIG    1        1.542  -0.018   0.111  0.00  0.00    +0.124 C 
ATOM     37  C   LIG    1        2.022   0.586   1.449  0.00  0.00    +0.038 C 
BRANCH  36  38
ATOM     38  O   LIG    1        2.025   0.688  -1.032  0.00  0.00    -0.376 OA
BRANCH  38  39
ATOM     39  C   LIG    1        3.435   0.678  -1.230  0.00  0.00    +0.160 C 
BRANCH  39  40
ATOM     40  C   LIG    1        3.748   1.334  -2.582  0.00  0.00    +0.028 C 
BRANCH  40  41
ATOM     41  C   LIG    1        5.253   1.345  -2.905  0.00  0.00    +0.002 C 
BRANCH  41  42
ATOM     42  C   LIG    1        5.574   1.997  -4.261  0.00  0.00    -0.000 C 
BRANCH  42  43
ATOM     43  C   LIG    1        7.078   1.998  -4.584  0.00  0.00    -0.003 C 
ATOM     44  C   LIG    1        7.400   2.651  -5.935  0.00  0.00    +0.004 C 
ENDBRANCH  42  43
ENDBRANCH  41  42
ENDBRANCH  40  41
ENDBRANCH  39  40
ENDBRANCH  38  39
ENDBRANCH  36  38
ENDBRANCH   1  36
BRANCH  29  45
ATOM     45  C   LIG    1       -1.730  -7.406  -0.369  0.00  0.00    +0.006 C 
ATOM     46  C   LIG    1       -1.805  -8.073   1.011  0.00  0.00    +0.004 C 
ENDBRANCH  29  45
BRANCH  18  47
ATOM     47  C   LIG    1       -7.555   1.344   1.644  0.00  0.00    +0.017 C 
BRANCH  47  48
ATOM     48  C   LIG    1       -8.305   2.698   1.778  0.00  0.00    +0.121 C 
BRANCH  48  49
ATOM     49  C   LIG    1       -8.982   2.940   3.149  0.00  0.00    +0.305 C 
ATOM     50  O   LIG    1       -9.709   3.956   3.231  0.00  0.00    -0.251 OA
BRANCH  49  51
ATOM     51  O   LIG    1       -8.777   2.150   4.100  0.00  0.00    -0.481 OA
ATOM     52  H   LIG    1       -8.222   1.405   3.978  0.00  0.00    +0.295 HD
ENDBRANCH  49  51
ENDBRANCH  48  49
ENDBRANCH  47  48
ENDBRANCH  18  47
TORSDOF 12
