REMARK  Name = DB15219
REMARK                            x       y       z     vdW  Elec       q    Type
REMARK                         _______ _______ _______ _____ _____    ______ ____
ROOT
ATOM      1  C   LIG    1       -2.485   2.499   0.017  0.00  0.00    +0.046 C 
ATOM      2  C   LIG    1       -1.952   1.075  -0.081  0.00  0.00    -0.020 A 
ATOM      3  C   LIG    1       -0.514   0.854  -0.127  0.00  0.00    +0.034 A 
ATOM      4  C   LIG    1        0.014  -0.389  -0.116  0.00  0.00    +0.098 A 
ATOM      5  C   LIG    1       -0.842  -1.589  -0.115  0.00  0.00    +0.275 A 
ATOM      6  O   LIG    1       -0.394  -2.737  -0.183  0.00  0.00    -0.266 OA
ATOM      7  N   LIG    1       -2.197  -1.327  -0.051  0.00  0.00    -0.280 N 
ATOM      8  C   LIG    1       -3.252  -2.341  -0.008  0.00  0.00    +0.116 C 
ATOM      9  N   LIG    1       -4.417  -1.488   0.069  0.00  0.00    -0.287 N 
ATOM     10  H   LIG    1       -5.348  -1.872   0.132  0.00  0.00    +0.151 HD
ATOM     11  C   LIG    1       -4.172  -0.174   0.036  0.00  0.00    +0.263 C 
ATOM     12  O   LIG    1       -5.034   0.703   0.057  0.00  0.00    -0.269 OA
ATOM     13  C   LIG    1       -3.314  -3.222  -1.294  0.00  0.00    +0.048 C 
ATOM     14  C   LIG    1       -4.449  -4.269  -1.250  0.00  0.00    +0.004 C 
ATOM     15  C   LIG    1       -4.370  -5.146   0.016  0.00  0.00    +0.000 C 
ATOM     16  C   LIG    1       -4.308  -4.303   1.305  0.00  0.00    +0.004 C 
ATOM     17  C   LIG    1       -3.175  -3.256   1.253  0.00  0.00    +0.048 C 
ATOM     18  C   LIG    1       -2.725  -0.047  -0.031  0.00  0.00    +0.112 A 
ENDROOT
BRANCH   4  19
ATOM     19  N   LIG    1        1.386  -0.590  -0.168  0.00  0.00    -0.295 N 
ATOM     20  H   LIG    1        1.908  -0.147  -0.910  0.00  0.00    +0.154 HD
BRANCH  19  21
ATOM     21  C   LIG    1        2.212  -1.204   0.791  0.00  0.00    +0.128 A 
ATOM     22  N   LIG    1        1.680  -1.657   1.963  0.00  0.00    -0.221 NA
ATOM     23  C   LIG    1        2.541  -2.236   2.838  0.00  0.00    +0.225 A 
ATOM     24  N   LIG    1        3.876  -2.399   2.654  0.00  0.00    -0.221 NA
ATOM     25  C   LIG    1        4.380  -1.936   1.482  0.00  0.00    +0.121 A 
ATOM     26  C   LIG    1        3.579  -1.324   0.513  0.00  0.00    +0.087 A 
BRANCH  25  27
ATOM     27  N   LIG    1        5.747  -2.091   1.263  0.00  0.00    -0.343 N 
ATOM     28  H   LIG    1        6.311  -2.538   1.971  0.00  0.00    +0.144 HD
ATOM     29  H   LIG    1        6.154  -1.763   0.400  0.00  0.00    +0.144 HD
ENDBRANCH  25  27
ENDBRANCH  19  21
ENDBRANCH   4  19
TORSDOF 3
