REMARK  Name = DB15982
REMARK                            x       y       z     vdW  Elec       q    Type
REMARK                         _______ _______ _______ _____ _____    ______ ____
ROOT
ATOM      1  C   LIG    1       -0.633   1.147  -0.517  0.00  0.00    +0.267 C 
ATOM      2  N   LIG    1        0.175   0.192  -0.004  0.00  0.00    -0.278 N 
ATOM      3  H   LIG    1       -0.280  -0.533   0.531  0.00  0.00    +0.155 HD
ATOM      4  O   LIG    1       -0.268   2.134  -1.157  0.00  0.00    -0.268 OA
ENDROOT
BRANCH   2   5
ATOM      5  C   LIG    1        1.579   0.074  -0.061  0.00  0.00    +0.070 A 
ATOM      6  C   LIG    1        2.408   0.848  -0.892  0.00  0.00    +0.031 A 
ATOM      7  C   LIG    1        3.798   0.688  -0.880  0.00  0.00    -0.024 A 
ATOM      8  C   LIG    1        4.361  -0.271  -0.026  0.00  0.00    +0.008 A 
ATOM      9  C   LIG    1        3.549  -1.051   0.794  0.00  0.00    +0.040 A 
ATOM     10  C   LIG    1        2.166  -0.882   0.778  0.00  0.00    +0.145 A 
ATOM     11  F   LIG    1        1.403  -1.653   1.591  0.00  0.00    -0.204 F 
BRANCH   7  12
ATOM     12  C   LIG    1        4.650   1.574  -1.799  0.00  0.00    +0.115 C 
BRANCH  12  13
ATOM     13  C   LIG    1        4.839   2.966  -1.178  0.00  0.00    -0.025 A 
ATOM     14  C   LIG    1        3.898   3.967  -1.446  0.00  0.00    +0.005 A 
ATOM     15  C   LIG    1        4.042   5.241  -0.898  0.00  0.00    +0.002 A 
ATOM     16  C   LIG    1        5.131   5.529  -0.076  0.00  0.00    +0.019 A 
ATOM     17  C   LIG    1        6.080   4.541   0.200  0.00  0.00    +0.052 A 
ATOM     18  C   LIG    1        5.933   3.265  -0.351  0.00  0.00    +0.024 A 
BRANCH  17  19
ATOM     19  C   LIG    1        7.215   4.838   1.061  0.00  0.00    +0.099 C 
ATOM     20  N   LIG    1        8.118   5.074   1.745  0.00  0.00    -0.191 NA
ENDBRANCH  17  19
ENDBRANCH  12  13
BRANCH  12  21
ATOM     21  N   LIG    1        5.912   0.923  -2.173  0.00  0.00    -0.305 NA
ATOM     22  H   LIG    1        5.723  -0.023  -2.472  0.00  0.00    +0.123 HD
BRANCH  21  23
ATOM     23  C   LIG    1        6.631   1.621  -3.233  0.00  0.00    +0.085 C 
BRANCH  23  24
ATOM     24  C   LIG    1        7.910   0.842  -3.571  0.00  0.00    +0.003 C 
ATOM     25  C   LIG    1        7.853  -0.375  -4.458  0.00  0.00    +0.005 C 
ATOM     26  C   LIG    1        8.485   0.915  -4.960  0.00  0.00    +0.005 C 
ENDBRANCH  23  24
ENDBRANCH  21  23
ENDBRANCH  12  21
ENDBRANCH   7  12
ENDBRANCH   2   5
BRANCH   1  28
ATOM     27  N   LIG    1       -3.037   1.846  -0.035  0.00  0.00    -0.227 N 
ATOM     28  C   LIG    1       -2.032   0.905  -0.248  0.00  0.00    +0.130 A 
ATOM     29  C   LIG    1       -2.699  -0.315  -0.264  0.00  0.00    +0.067 A 
ATOM     30  C   LIG    1       -4.061  -0.039  -0.145  0.00  0.00    +0.166 A 
ATOM     31  N   LIG    1       -4.252   1.258  -0.070  0.00  0.00    -0.162 NA
BRANCH  27  32
ATOM     32  C   LIG    1       -2.975   3.270  -0.057  0.00  0.00    +0.067 A 
ATOM     33  C   LIG    1       -1.914   3.940   0.570  0.00  0.00    +0.028 A 
ATOM     34  C   LIG    1       -1.845   5.332   0.553  0.00  0.00    +0.002 A 
ATOM     35  C   LIG    1       -2.838   6.074  -0.084  0.00  0.00    +0.005 A 
ATOM     36  C   LIG    1       -3.909   5.426  -0.704  0.00  0.00    -0.032 A 
ATOM     37  C   LIG    1       -3.976   4.029  -0.686  0.00  0.00    +0.032 A 
BRANCH  36  38
ATOM     38  C   LIG    1       -4.989   6.234  -1.403  0.00  0.00    +0.113 C 
BRANCH  38  39
ATOM     39  N   LIG    1       -4.601   6.555  -2.763  0.00  0.00    -0.326 NA
ATOM     40  H   LIG    1       -4.447   5.711  -3.296  0.00  0.00    +0.119 HD
ATOM     41  H   LIG    1       -3.744   7.090  -2.771  0.00  0.00    +0.119 HD
ENDBRANCH  38  39
ENDBRANCH  36  38
ENDBRANCH  27  32
BRANCH  30  42
ATOM     42  C   LIG    1       -5.240  -0.994  -0.133  0.00  0.00    +0.436 C 
ATOM     43  F   LIG    1       -6.056  -0.763  -1.162  0.00  0.00    -0.164 F 
ATOM     44  F   LIG    1       -5.950  -0.868   0.988  0.00  0.00    -0.164 F 
ATOM     45  F   LIG    1       -4.841  -2.263  -0.214  0.00  0.00    -0.164 F 
ENDBRANCH  30  42
ENDBRANCH   1  28
TORSDOF 12
