REMARK  Name = DB15555
REMARK                            x       y       z     vdW  Elec       q    Type
REMARK                         _______ _______ _______ _____ _____    ______ ____
ROOT
ATOM      1  C   LIG    1        1.584   0.035  -0.081  0.00  0.00    +0.233 C 
ENDROOT
BRANCH   1   2
ATOM      2  O   LIG    1        2.250   0.829   0.900  0.00  0.00    -0.380 OA
ATOM      3  H   LIG    1        2.756   0.238   1.463  0.00  0.00    +0.211 HD
ENDBRANCH   1   2
BRANCH   1   4
ATOM      4  C   LIG    1        2.082  -1.444  -0.057  0.00  0.00    +0.334 C 
ATOM      5  O   LIG    1        1.753  -2.164  -1.028  0.00  0.00    -0.248 OA
BRANCH   4   6
ATOM      6  O   LIG    1        2.785  -1.859   0.897  0.00  0.00    -0.479 OA
ATOM      7  H   LIG    1        3.005  -1.283   1.602  0.00  0.00    +0.295 HD
ENDBRANCH   4   6
ENDBRANCH   1   4
BRANCH   1   8
ATOM      8  C   LIG    1        0.037   0.095   0.141  0.00  0.00    +0.163 C 
BRANCH   8   9
ATOM      9  C   LIG    1       -0.608   1.495  -0.024  0.00  0.00    +0.308 C 
ATOM     10  O   LIG    1       -0.108   2.312  -0.831  0.00  0.00    -0.251 OA
BRANCH   9  11
ATOM     11  O   LIG    1       -1.647   1.715   0.640  0.00  0.00    -0.481 OA
ATOM     12  H   LIG    1       -1.973   1.064   1.229  0.00  0.00    +0.295 HD
ENDBRANCH   9  11
ENDBRANCH   8   9
ENDBRANCH   1   8
TORSDOF 6
