REMARK  Name = DB15168
REMARK                            x       y       z     vdW  Elec       q    Type
REMARK                         _______ _______ _______ _____ _____    ______ ____
ROOT
ATOM      1  C   LIG    1       -2.847  -0.415  -0.093  0.00  0.00    +0.005 A 
ATOM      2  C   LIG    1       -2.100   0.761  -0.246  0.00  0.00    +0.011 A 
ATOM      3  C   LIG    1       -0.730   0.712  -0.494  0.00  0.00    +0.046 A 
ATOM      4  C   LIG    1       -0.067  -0.509  -0.598  0.00  0.00    +0.122 A 
ATOM      5  C   LIG    1       -0.812  -1.691  -0.475  0.00  0.00    +0.066 A 
ATOM      6  C   LIG    1       -2.186  -1.652  -0.231  0.00  0.00    +0.050 A 
ATOM      7 CL   LIG    1       -3.027  -3.162  -0.138  0.00  0.00    -0.083 Cl
ENDROOT
BRANCH   1  10
ATOM      8  N   LIG    1       -5.257   0.153   2.037  0.00  0.00    -0.276 NA
ATOM      9  C   LIG    1       -4.965   0.946   0.834  0.00  0.00    +0.127 C 
ATOM     10  C   LIG    1       -4.360  -0.333   0.190  0.00  0.00    +0.118 C 
ATOM     11  C   LIG    1       -4.955  -1.127   1.381  0.00  0.00    +0.127 C 
BRANCH   8  14
ATOM     12  C   LIG    1       -6.358   2.129   5.032  0.00  0.00    +0.095 C 
ATOM     13  C   LIG    1       -5.926   1.824   3.724  0.00  0.00    +0.053 C 
ATOM     14  C   LIG    1       -5.691   0.496   3.344  0.00  0.00    +0.110 C 
ATOM     15  N   LIG    1       -5.886  -0.482   4.251  0.00  0.00    -0.291 NA
ATOM     16  H   LIG    1       -5.714  -1.436   3.966  0.00  0.00    +0.124 HD
ATOM     17  C   LIG    1       -6.297  -0.256   5.512  0.00  0.00    +0.077 C 
ATOM     18  C   LIG    1       -6.541   1.054   5.926  0.00  0.00    +0.032 C 
BRANCH  12  19
ATOM     19  C   LIG    1       -6.613   3.552   5.459  0.00  0.00    +0.313 C 
ATOM     20  O   LIG    1       -5.957   4.465   4.903  0.00  0.00    -0.250 OA
BRANCH  19  21
ATOM     21  O   LIG    1       -7.469   3.759   6.352  0.00  0.00    -0.480 OA
ATOM     22  H   LIG    1       -8.067   3.080   6.594  0.00  0.00    +0.295 HD
ENDBRANCH  19  21
ENDBRANCH  12  19
ENDBRANCH   8  14
BRANCH  10  23
ATOM     23  O   LIG    1       -5.017  -0.636  -1.029  0.00  0.00    -0.381 OA
ATOM     24  H   LIG    1       -4.738  -1.509  -1.315  0.00  0.00    +0.211 HD
ENDBRANCH  10  23
ENDBRANCH   1  10
BRANCH   4  25
ATOM     25  O   LIG    1        1.291  -0.461  -0.835  0.00  0.00    -0.487 OA
BRANCH  25  26
ATOM     26  C   LIG    1        2.079  -1.637  -0.665  0.00  0.00    +0.270 C 
BRANCH  26  27
ATOM     27  C   LIG    1        3.508  -1.215  -0.411  0.00  0.00    +0.060 A 
ATOM     28  C   LIG    1        3.986  -0.393   0.616  0.00  0.00    +0.123 A 
ATOM     29  N   LIG    1        5.288  -0.219   0.572  0.00  0.00    -0.078 NA
ATOM     30  O   LIG    1        5.725  -0.954  -0.526  0.00  0.00    -0.358 OA
ATOM     31  C   LIG    1        4.655  -1.552  -1.109  0.00  0.00    +0.147 A 
BRANCH  28  32
ATOM     32  C   LIG    1        3.166   0.259   1.677  0.00  0.00    +0.041 A 
ATOM     33  C   LIG    1        2.659   1.556   1.487  0.00  0.00    +0.052 A 
ATOM     34 CL   LIG    1        2.986   2.453   0.042  0.00  0.00    -0.083 Cl
ATOM     35  C   LIG    1        1.862   2.147   2.469  0.00  0.00    +0.021 A 
ATOM     36  C   LIG    1        1.561   1.456   3.640  0.00  0.00    +0.003 A 
ATOM     37  C   LIG    1        2.055   0.168   3.833  0.00  0.00    +0.021 A 
ATOM     38  C   LIG    1        2.852  -0.435   2.858  0.00  0.00    +0.052 A 
ATOM     39 CL   LIG    1        3.426  -2.043   3.142  0.00  0.00    -0.083 Cl
ENDBRANCH  28  32
BRANCH  31  40
ATOM     40  C   LIG    1        4.927  -2.413  -2.328  0.00  0.00    +0.058 C 
ATOM     41  C   LIG    1        5.993  -2.026  -3.324  0.00  0.00    +0.012 C 
ATOM     42  C   LIG    1        6.192  -3.232  -2.425  0.00  0.00    +0.012 C 
ENDBRANCH  31  40
ENDBRANCH  26  27
ENDBRANCH  25  26
ENDBRANCH   4  25
TORSDOF 10
