REMARK  Name = DB15117
REMARK                            x       y       z     vdW  Elec       q    Type
REMARK                         _______ _______ _______ _____ _____    ______ ____
ROOT
ATOM      1  O   LIG    1        2.138   0.813  -0.733  0.00  0.00    -0.459 OA
ENDROOT
BRANCH   1   2
ATOM      2  C   LIG    1        1.551  -0.333  -0.333  0.00  0.00    +0.312 C 
ATOM      3  O   LIG    1        2.141  -1.337   0.074  0.00  0.00    -0.250 OA
BRANCH   2   6
ATOM      4  C   LIG    1       -0.191  -2.639  -1.585  0.00  0.00    +0.012 C 
ATOM      5  C   LIG    1       -0.845  -1.361  -1.012  0.00  0.00    -0.014 C 
ATOM      6  C   LIG    1        0.018  -0.246  -0.428  0.00  0.00    +0.111 C 
ATOM      7  C   LIG    1       -0.830  -1.161   0.479  0.00  0.00    +0.035 C 
ATOM      8  C   LIG    1       -2.059  -0.912  -1.851  0.00  0.00    +0.012 C 
BRANCH   7   9
ATOM      9  C   LIG    1       -1.988  -0.497   1.210  0.00  0.00    +0.010 C 
ATOM     10  C   LIG    1       -2.477  -0.866   2.406  0.00  0.00    +0.103 C 
ATOM     11 CL   LIG    1       -1.840  -2.227   3.340  0.00  0.00    -0.071 Cl
ATOM     12 CL   LIG    1       -3.825  -0.003   3.152  0.00  0.00    -0.071 Cl
ENDBRANCH   7   9
ENDBRANCH   2   6
ENDBRANCH   1   2
BRANCH   1  13
ATOM     13  C   LIG    1        3.553   0.950  -0.712  0.00  0.00    +0.273 C 
BRANCH  13  14
ATOM     14  C   LIG    1        3.930   2.321  -1.249  0.00  0.00    +0.066 A 
ATOM     15  C   LIG    1        4.227   2.491  -2.608  0.00  0.00    +0.168 A 
ATOM     16  F   LIG    1        4.180   1.437  -3.457  0.00  0.00    -0.202 F 
ATOM     17  C   LIG    1        4.571   3.753  -3.098  0.00  0.00    +0.162 A 
ATOM     18  F   LIG    1        4.858   3.918  -4.409  0.00  0.00    -0.202 F 
ATOM     19  C   LIG    1        4.619   4.848  -2.236  0.00  0.00    +0.082 A 
ATOM     20  C   LIG    1        4.323   4.686  -0.883  0.00  0.00    +0.162 A 
ATOM     21  F   LIG    1        4.369   5.752  -0.052  0.00  0.00    -0.202 F 
ATOM     22  C   LIG    1        3.978   3.426  -0.388  0.00  0.00    +0.168 A 
ATOM     23  F   LIG    1        3.688   3.282   0.927  0.00  0.00    -0.202 F 
ENDBRANCH  13  14
ENDBRANCH   1  13
TORSDOF 5
