REMARK  Name = DB15394
REMARK                            x       y       z     vdW  Elec       q    Type
REMARK                         _______ _______ _______ _____ _____    ______ ____
ROOT
ATOM      1  C   LIG    1        5.664  -0.863   1.359  0.00  0.00    +0.048 C 
ENDROOT
BRANCH   1   2
ATOM      2  C   LIG    1        6.247  -0.124   2.596  0.00  0.00    +0.108 C 
ATOM      3  O   LIG    1        5.672   1.194   2.563  0.00  0.00    -0.485 OA
ATOM      4  C   LIG    1        5.756   1.984   3.703  0.00  0.00    +0.128 A 
ATOM      5  C   LIG    1        5.501   3.356   3.534  0.00  0.00    -0.002 A 
ATOM      6  C   LIG    1        5.467   4.201   4.661  0.00  0.00    -0.003 A 
ATOM      7  C   LIG    1        5.686   3.655   5.936  0.00  0.00    +0.120 A 
ATOM      8  C   LIG    1        5.938   2.294   6.084  0.00  0.00    +0.053 A 
ATOM      9  C   LIG    1        5.162   5.692   4.507  0.00  0.00    +0.048 C 
ATOM     10  C   LIG    1        5.273   3.920   2.130  0.00  0.00    +0.048 C 
ATOM     11  C   LIG    1        5.979   1.439   4.984  0.00  0.00    -0.002 A 
ATOM     12  C   LIG    1        6.276  -0.046   5.150  0.00  0.00    +0.043 C 
ATOM     13  C   LIG    1        5.797  -0.819   3.913  0.00  0.00    +0.052 C 
ATOM     14  C   LIG    1        7.790   0.004   2.517  0.00  0.00    +0.055 C 
BRANCH   7  15
ATOM     15  O   LIG    1        5.665   4.436   7.064  0.00  0.00    -0.506 OA
ATOM     16  H   LIG    1        5.825   3.935   7.867  0.00  0.00    +0.292 HD
ENDBRANCH   7  15
ENDBRANCH   1   2
BRANCH   1  17
ATOM     17  C   LIG    1        4.122  -0.924   1.265  0.00  0.00    +0.004 C 
BRANCH  17  18
ATOM     18  C   LIG    1        3.619  -1.528  -0.062  0.00  0.00    +0.003 C 
BRANCH  18  19
ATOM     19  C   LIG    1        2.075  -1.575  -0.207  0.00  0.00    -0.014 C 
ATOM     20  C   LIG    1        1.667  -2.528  -1.349  0.00  0.00    +0.007 C 
BRANCH  19  21
ATOM     21  C   LIG    1        1.460  -0.162  -0.382  0.00  0.00    +0.003 C 
BRANCH  21  22
ATOM     22  C   LIG    1       -0.081  -0.106  -0.321  0.00  0.00    +0.001 C 
BRANCH  22  23
ATOM     23  C   LIG    1       -0.619   1.339  -0.357  0.00  0.00    +0.003 C 
BRANCH  23  24
ATOM     24  C   LIG    1       -2.147   1.480  -0.128  0.00  0.00    -0.014 C 
ATOM     25  C   LIG    1       -2.968   0.737  -1.203  0.00  0.00    +0.007 C 
BRANCH  24  26
ATOM     26  C   LIG    1       -2.598   2.960  -0.034  0.00  0.00    +0.003 C 
BRANCH  26  27
ATOM     27  C   LIG    1       -2.056   3.732   1.187  0.00  0.00    +0.001 C 
BRANCH  27  28
ATOM     28  C   LIG    1       -2.623   5.162   1.293  0.00  0.00    +0.003 C 
BRANCH  28  30
ATOM     29  C   LIG    1       -2.954   7.269   2.677  0.00  0.00    +0.007 C 
ATOM     30  C   LIG    1       -2.190   5.938   2.560  0.00  0.00    -0.017 C 
ATOM     31  C   LIG    1       -0.668   6.177   2.630  0.00  0.00    +0.007 C 
ENDBRANCH  28  30
ENDBRANCH  27  28
ENDBRANCH  26  27
ENDBRANCH  24  26
ENDBRANCH  23  24
ENDBRANCH  22  23
ENDBRANCH  21  22
ENDBRANCH  19  21
ENDBRANCH  18  19
ENDBRANCH  17  18
ENDBRANCH   1  17
TORSDOF 13
