REMARK  Name = DB15372
REMARK                            x       y       z     vdW  Elec       q    Type
REMARK                         _______ _______ _______ _____ _____    ______ ____
ROOT
ATOM      1  C   LIG    1        1.639  -0.428   0.707  0.00  0.00    +0.224 C 
ENDROOT
BRANCH   1   2
ATOM      2  C   LIG    1        0.122  -0.738   0.767  0.00  0.00    +0.277 C 
BRANCH   2   3
ATOM      3  O   LIG    1       -0.612   0.475   0.876  0.00  0.00    -0.461 OA
BRANCH   3   4
ATOM      4  C   LIG    1       -1.961   0.486   0.929  0.00  0.00    +0.307 C 
ATOM      5  O   LIG    1       -2.688  -0.507   0.912  0.00  0.00    -0.251 OA
BRANCH   4   6
ATOM      6  C   LIG    1       -2.569   1.895   1.024  0.00  0.00    +0.120 C 
BRANCH   6   7
ATOM      7  C   LIG    1       -1.560   3.046   1.240  0.00  0.00    +0.011 C 
BRANCH   7   8
ATOM      8  C   LIG    1       -2.233   4.425   1.367  0.00  0.00    +0.001 C 
BRANCH   8   9
ATOM      9  C   LIG    1       -1.297   5.533   1.891  0.00  0.00    +0.000 C 
BRANCH   9  10
ATOM     10  C   LIG    1       -0.032   5.752   1.038  0.00  0.00    +0.000 C 
BRANCH  10  11
ATOM     11  C   LIG    1        0.826   6.938   1.519  0.00  0.00    +0.000 C 
BRANCH  11  12
ATOM     12  C   LIG    1        2.198   7.048   0.823  0.00  0.00    -0.000 C 
BRANCH  12  13
ATOM     13  C   LIG    1        2.125   7.299  -0.696  0.00  0.00    -0.000 C 
BRANCH  13  14
ATOM     14  C   LIG    1        3.513   7.445  -1.345  0.00  0.00    -0.000 C 
BRANCH  14  15
ATOM     15  C   LIG    1        3.442   7.664  -2.867  0.00  0.00    -0.000 C 
BRANCH  15  16
ATOM     16  C   LIG    1        4.829   7.790  -3.521  0.00  0.00    -0.000 C 
BRANCH  16  17
ATOM     17  C   LIG    1        4.755   8.012  -5.043  0.00  0.00    -0.000 C 
BRANCH  17  18
ATOM     18  C   LIG    1        6.140   8.136  -5.701  0.00  0.00    -0.000 C 
BRANCH  18  19
ATOM     19  C   LIG    1        6.063   8.370  -7.221  0.00  0.00    -0.000 C 
BRANCH  19  20
ATOM     20  C   LIG    1        7.448   8.496  -7.880  0.00  0.00    -0.000 C 
BRANCH  20  22
ATOM     21  C   LIG    1        8.754   8.869 -10.051  0.00  0.00    +0.004 C 
ATOM     22  C   LIG    1        7.372   8.731  -9.398  0.00  0.00    -0.003 C 
ENDBRANCH  20  22
ENDBRANCH  19  20
ENDBRANCH  18  19
ENDBRANCH  17  18
ENDBRANCH  16  17
ENDBRANCH  15  16
ENDBRANCH  14  15
ENDBRANCH  13  14
ENDBRANCH  12  13
ENDBRANCH  11  12
ENDBRANCH  10  11
ENDBRANCH   9  10
ENDBRANCH   8   9
ENDBRANCH   7   8
ENDBRANCH   6   7
ENDBRANCH   4   6
ENDBRANCH   3   4
ENDBRANCH   2   3
ENDBRANCH   1   2
BRANCH   1  23
ATOM     23  O   LIG    1        1.944   0.336  -0.461  0.00  0.00    -0.457 OA
BRANCH  23  24
ATOM     24  C   LIG    1        1.984  -0.221  -1.693  0.00  0.00    +0.307 C 
ATOM     25  O   LIG    1        1.869  -1.420  -1.954  0.00  0.00    -0.251 OA
BRANCH  24  26
ATOM     26  C   LIG    1        2.167   0.822  -2.797  0.00  0.00    +0.120 C 
BRANCH  26  27
ATOM     27  C   LIG    1        0.934   1.735  -3.000  0.00  0.00    +0.011 C 
BRANCH  27  28
ATOM     28  C   LIG    1       -0.391   1.019  -3.351  0.00  0.00    +0.001 C 
BRANCH  28  29
ATOM     29  C   LIG    1       -0.327   0.186  -4.646  0.00  0.00    +0.000 C 
BRANCH  29  30
ATOM     30  C   LIG    1       -1.663  -0.491  -5.000  0.00  0.00    +0.000 C 
BRANCH  30  31
ATOM     31  C   LIG    1       -1.569  -1.354  -6.272  0.00  0.00    +0.000 C 
BRANCH  31  32
ATOM     32  C   LIG    1       -2.890  -2.060  -6.629  0.00  0.00    -0.000 C 
BRANCH  32  33
ATOM     33  C   LIG    1       -2.767  -2.950  -7.879  0.00  0.00    -0.000 C 
BRANCH  33  34
ATOM     34  C   LIG    1       -4.077  -3.672  -8.241  0.00  0.00    -0.000 C 
BRANCH  34  35
ATOM     35  C   LIG    1       -3.933  -4.585  -9.472  0.00  0.00    -0.000 C 
BRANCH  35  36
ATOM     36  C   LIG    1       -5.235  -5.320  -9.835  0.00  0.00    -0.000 C 
BRANCH  36  37
ATOM     37  C   LIG    1       -5.077  -6.250 -11.054  0.00  0.00    -0.000 C 
BRANCH  37  38
ATOM     38  C   LIG    1       -6.333  -7.079 -11.386  0.00  0.00    -0.000 C 
BRANCH  38  39
ATOM     39  C   LIG    1       -7.527  -6.248 -11.896  0.00  0.00    -0.000 C 
BRANCH  39  40
ATOM     40  C   LIG    1       -8.742  -7.119 -12.270  0.00  0.00    -0.000 C 
BRANCH  40  41
ATOM     41  C   LIG    1       -9.974  -6.321 -12.738  0.00  0.00    -0.003 C 
ATOM     42  C   LIG    1       -9.782  -5.591 -14.077  0.00  0.00    +0.004 C 
ENDBRANCH  40  41
ENDBRANCH  39  40
ENDBRANCH  38  39
ENDBRANCH  37  38
ENDBRANCH  36  37
ENDBRANCH  35  36
ENDBRANCH  34  35
ENDBRANCH  33  34
ENDBRANCH  32  33
ENDBRANCH  31  32
ENDBRANCH  30  31
ENDBRANCH  29  30
ENDBRANCH  28  29
ENDBRANCH  27  28
ENDBRANCH  26  27
ENDBRANCH  24  26
ENDBRANCH  23  24
ENDBRANCH   1  23
BRANCH   1  43
ATOM     43  C   LIG    1        2.149   0.361   1.928  0.00  0.00    +0.129 C 
BRANCH  43  44
ATOM     44  S   LIG    1        2.050  -0.527   3.506  0.00  0.00    -0.084 S 
BRANCH  44  45
ATOM     45  S   LIG    1        2.214   0.957   4.906  0.00  0.00    -0.057 S 
BRANCH  45  46
ATOM     46  C   LIG    1        0.604   1.703   5.011  0.00  0.00    +0.019 A 
ATOM     47  C   LIG    1       -0.533   1.089   4.474  0.00  0.00    +0.016 A 
ATOM     48  C   LIG    1       -1.768   1.720   4.563  0.00  0.00    +0.008 A 
ATOM     49  C   LIG    1       -1.879   2.962   5.194  0.00  0.00    -0.010 A 
ATOM     50  C   LIG    1       -0.745   3.574   5.731  0.00  0.00    +0.008 A 
ATOM     51  C   LIG    1        0.494   2.944   5.638  0.00  0.00    +0.016 A 
BRANCH  49  52
ATOM     52  C   LIG    1       -3.232   3.659   5.292  0.00  0.00    +0.269 C 
BRANCH  52  53
ATOM     53  O   LIG    1       -4.269   2.734   5.614  0.00  0.00    -0.445 OA
BRANCH  53  54
ATOM     54  C   LIG    1       -4.453   2.267   6.871  0.00  0.00    +0.404 C 
ATOM     55  N   LIG    1       -5.355   1.202   6.836  0.00  0.00    -0.252 N 
ATOM     56  C   LIG    1       -4.968  -0.072   6.215  0.00  0.00    +0.153 C 
ATOM     57  C   LIG    1       -6.125  -0.951   5.666  0.00  0.00    +0.167 C 
ATOM     58  C   LIG    1       -6.875  -0.406   4.422  0.00  0.00    +0.115 C 
ATOM     59  C   LIG    1       -8.288  -0.214   4.958  0.00  0.00    +0.037 C 
ATOM     60  C   LIG    1       -9.467   0.247   4.198  0.00  0.00    +0.205 C 
ATOM     61  C   LIG    1      -10.696   0.346   5.032  0.00  0.00    +0.079 C 
ATOM     62  C   LIG    1      -10.740  -0.018   6.349  0.00  0.00    +0.022 C 
ATOM     63  C   LIG    1       -9.566  -0.553   7.090  0.00  0.00    +0.205 C 
ATOM     64  O   LIG    1       -9.602  -0.939   8.261  0.00  0.00    -0.286 OA
ATOM     65  C   LIG    1      -11.999   0.082   7.220  0.00  0.00    +0.050 C 
ATOM     66  O   LIG    1       -9.425   0.511   2.995  0.00  0.00    -0.286 OA
ATOM     67  C   LIG    1       -8.343  -0.580   6.256  0.00  0.00    +0.087 C 
ATOM     68  N   LIG    1       -7.112  -1.018   6.708  0.00  0.00    -0.295 N 
ATOM     69  C   LIG    1       -6.576  -0.613   8.008  0.00  0.00    +0.132 C 
ATOM     70  C   LIG    1       -5.219   0.013   7.677  0.00  0.00    +0.122 C 
ATOM     71  O   LIG    1       -3.911   2.716   7.883  0.00  0.00    -0.226 OA
BRANCH  61  72
ATOM     72  N   LIG    1      -11.810   0.830   4.385  0.00  0.00    -0.355 N 
ATOM     73  H   LIG    1      -12.694   0.927   4.863  0.00  0.00    +0.142 HD
ATOM     74  H   LIG    1      -11.770   1.091   3.409  0.00  0.00    +0.142 HD
ENDBRANCH  61  72
BRANCH  57  75
ATOM     75  O   LIG    1       -5.607  -2.211   5.306  0.00  0.00    -0.357 OA
ATOM     76  C   LIG    1       -4.941  -3.007   6.286  0.00  0.00    +0.196 C 
ENDBRANCH  57  75
BRANCH  58  77
ATOM     77  C   LIG    1       -6.227   0.863   3.809  0.00  0.00    +0.246 C 
BRANCH  77  78
ATOM     78  O   LIG    1       -6.689   1.115   2.489  0.00  0.00    -0.450 OA
BRANCH  78  79
ATOM     79  C   LIG    1       -6.322   2.234   1.837  0.00  0.00    +0.398 C 
ATOM     80  O   LIG    1       -5.601   3.123   2.292  0.00  0.00    -0.227 OA
ATOM     81  N   LIG    1       -6.878   2.231   0.579  0.00  0.00    -0.295 N 
ATOM     82  H   LIG    1       -6.701   3.006  -0.042  0.00  0.00    +0.148 HD
ATOM     83  H   LIG    1       -7.464   1.458   0.299  0.00  0.00    +0.148 HD
ENDBRANCH  78  79
ENDBRANCH  77  78
ENDBRANCH  58  77
ENDBRANCH  53  54
ENDBRANCH  52  53
ENDBRANCH  49  52
ENDBRANCH  45  46
ENDBRANCH  44  45
ENDBRANCH  43  44
ENDBRANCH   1  43
TORSDOF 49
