REMARK  Name = DB15009
REMARK                            x       y       z     vdW  Elec       q    Type
REMARK                         _______ _______ _______ _____ _____    ______ ____
ROOT
ATOM      1  C   LIG    1        1.466   0.040  -0.115  0.00  0.00    +0.140 A 
ATOM      2  C   LIG    1        2.163   0.183   1.098  0.00  0.00    +0.063 A 
ATOM      3  C   LIG    1        1.832   0.335   2.480  0.00  0.00    +0.056 A 
ATOM      4  C   LIG    1        3.034   0.427   3.167  0.00  0.00    +0.103 A 
ATOM      5  O   LIG    1        4.095   0.342   2.312  0.00  0.00    -0.460 OA
ATOM      6  C   LIG    1        3.379   0.597   4.626  0.00  0.00    +0.086 C 
ATOM      7  C   LIG    1        3.572   0.194   1.060  0.00  0.00    +0.139 A 
ATOM      8  C   LIG    1        4.307   0.067  -0.125  0.00  0.00    +0.060 A 
ATOM      9  C   LIG    1        3.592  -0.083  -1.329  0.00  0.00    +0.044 A 
ATOM     10  C   LIG    1        2.188  -0.102  -1.302  0.00  0.00    +0.060 A 
ENDROOT
BRANCH   9  11
ATOM     11  C   LIG    1        4.312  -0.227  -2.654  0.00  0.00    +0.250 C 
ATOM     12  N   LIG    1        5.566   0.282  -2.700  0.00  0.00    -0.265 N 
ATOM     13  H   LIG    1        5.915   0.699  -1.849  0.00  0.00    +0.157 HD
ATOM     14  O   LIG    1        3.743  -0.756  -3.612  0.00  0.00    -0.270 OA
BRANCH  12  15
ATOM     15  C   LIG    1        6.461   0.320  -3.785  0.00  0.00    +0.143 A 
ATOM     16  C   LIG    1        7.704   0.926  -3.562  0.00  0.00    +0.154 A 
ATOM     17  N   LIG    1        8.642   1.023  -4.541  0.00  0.00    -0.255 NA
ATOM     18  C   LIG    1        8.327   0.504  -5.758  0.00  0.00    +0.056 A 
ATOM     19  C   LIG    1        9.383   0.625  -6.839  0.00  0.00    +0.067 C 
ATOM     20  C   LIG    1        7.091  -0.104  -5.993  0.00  0.00    +0.136 A 
ATOM     21  N   LIG    1        6.156  -0.199  -5.012  0.00  0.00    -0.237 NA
ENDBRANCH  12  15
ENDBRANCH   9  11
BRANCH   1  22
ATOM     22  O   LIG    1        0.091   0.021  -0.103  0.00  0.00    -0.452 OA
BRANCH  22  26
ATOM     23  C   LIG    1       -2.143   3.338   0.791  0.00  0.00    +0.216 A 
ATOM     24  N   LIG    1       -0.847   3.566   0.448  0.00  0.00    -0.228 NA
ATOM     25  C   LIG    1       -0.104   2.468   0.150  0.00  0.00    +0.161 A 
ATOM     26  C   LIG    1       -0.621   1.162   0.206  0.00  0.00    +0.165 A 
ATOM     27  C   LIG    1       -1.964   1.047   0.577  0.00  0.00    +0.161 A 
ATOM     28  N   LIG    1       -2.741   2.119   0.882  0.00  0.00    -0.228 NA
BRANCH  23  31
ATOM     29  C   LIG    1       -4.847   6.044   0.638  0.00  0.00    +0.132 C 
ATOM     30  N   LIG    1       -3.928   4.954   0.303  0.00  0.00    -0.301 N 
ATOM     31  C   LIG    1       -2.965   4.537   1.168  0.00  0.00    +0.283 C 
ATOM     32  O   LIG    1       -2.744   5.081   2.252  0.00  0.00    -0.267 OA
ATOM     33  C   LIG    1       -4.168   4.388  -1.028  0.00  0.00    +0.132 C 
ENDBRANCH  23  31
ENDBRANCH  22  26
ENDBRANCH   1  22
TORSDOF 5
