REMARK  Name = DB15079
REMARK                            x       y       z     vdW  Elec       q    Type
REMARK                         _______ _______ _______ _____ _____    ______ ____
ROOT
ATOM      1  C   LIG    1        1.778  -0.308   1.521  0.00  0.00    +0.236 C 
ATOM      2  N   LIG    1        2.945  -0.943   1.766  0.00  0.00    -0.263 N 
ATOM      3  H   LIG    1        3.521  -1.182   0.973  0.00  0.00    +0.157 HD
ATOM      4  O   LIG    1        0.990   0.075   2.390  0.00  0.00    -0.274 OA
ENDROOT
BRANCH   2   5
ATOM      5  C   LIG    1        3.444  -1.317   3.006  0.00  0.00    +0.165 A 
ATOM      6  S   LIG    1        5.006  -2.100   3.013  0.00  0.00    -0.052 S 
ATOM      7  C   LIG    1        4.876  -2.217   4.764  0.00  0.00    +0.044 A 
ATOM      8  C   LIG    1        5.771  -2.761   5.695  0.00  0.00    +0.063 A 
ATOM      9  C   LIG    1        5.423  -2.732   7.057  0.00  0.00    +0.131 A 
ATOM     10  C   LIG    1        4.207  -2.165   7.451  0.00  0.00    +0.048 A 
ATOM     11  C   LIG    1        3.307  -1.619   6.535  0.00  0.00    +0.032 A 
ATOM     12  C   LIG    1        3.644  -1.645   5.176  0.00  0.00    +0.081 A 
ATOM     13  N   LIG    1        2.870  -1.155   4.172  0.00  0.00    -0.225 NA
BRANCH   9  14
ATOM     14  O   LIG    1        6.212  -3.235   8.075  0.00  0.00    -0.406 OA
BRANCH  14  15
ATOM     15  C   LIG    1        7.467  -3.853   7.790  0.00  0.00    +0.575 C 
ATOM     16  F   LIG    1        8.324  -2.995   7.232  0.00  0.00    -0.133 F 
ATOM     17  F   LIG    1        7.320  -4.939   7.027  0.00  0.00    -0.133 F 
ATOM     18  F   LIG    1        7.989  -4.246   8.950  0.00  0.00    -0.133 F 
ENDBRANCH  14  15
ENDBRANCH   9  14
ENDBRANCH   2   5
BRANCH   1  19
ATOM     19  C   LIG    1        1.501  -0.016   0.034  0.00  0.00    +0.203 C 
BRANCH  19  21
ATOM     20  C   LIG    1       -0.681   1.193  -0.143  0.00  0.00    +0.132 C 
ATOM     21  N   LIG    1        0.065  -0.064  -0.297  0.00  0.00    -0.294 N 
ATOM     22  C   LIG    1       -0.577  -1.212  -0.656  0.00  0.00    +0.233 C 
ATOM     23  O   LIG    1       -1.789  -1.240  -0.893  0.00  0.00    -0.274 OA
BRANCH  22  24
ATOM     24  C   LIG    1        0.237  -2.523  -0.820  0.00  0.00    +0.200 C 
BRANCH  24  25
ATOM     25  N   LIG    1       -0.587  -3.701  -0.535  0.00  0.00    -0.308 N 
ATOM     26  H   LIG    1       -0.957  -4.194  -1.335  0.00  0.00    +0.149 HD
ATOM     27  C   LIG    1       -0.913  -4.117   0.701  0.00  0.00    +0.196 C 
ATOM     28  O   LIG    1       -0.494  -3.554   1.718  0.00  0.00    -0.278 OA
BRANCH  27  29
ATOM     29  C   LIG    1       -1.844  -5.350   0.741  0.00  0.00    +0.011 C 
BRANCH  29  30
ATOM     30  N   LIG    1       -2.223  -5.706   2.138  0.00  0.00    +0.384 N 
ATOM     31  H   LIG    1       -1.407  -5.926   2.692  0.00  0.00    -0.089 HD
ATOM     32  H   LIG    1       -2.713  -4.944   2.586  0.00  0.00    -0.089 HD
ATOM     33  H   LIG    1       -2.831  -6.513   2.153  0.00  0.00    -0.089 HD
ENDBRANCH  29  30
ENDBRANCH  27  29
ENDBRANCH  24  25
ENDBRANCH  22  24
ENDBRANCH  19  21
ENDBRANCH   1  19
TORSDOF 9
