REMARK  Name = DB15426
REMARK                            x       y       z     vdW  Elec       q    Type
REMARK                         _______ _______ _______ _____ _____    ______ ____
ROOT
ATOM      1  C   LIG    1       -0.069  -1.269   0.016  0.00  0.00    -0.019 A 
ATOM      2  C   LIG    1       -1.466  -0.967  -0.056  0.00  0.00    +0.005 A 
ATOM      3  C   LIG    1       -2.623  -1.763  -0.044  0.00  0.00    +0.030 A 
ATOM      4  C   LIG    1       -3.872  -1.152  -0.102  0.00  0.00    +0.042 A 
ATOM      5  C   LIG    1       -3.984   0.233  -0.164  0.00  0.00    +0.022 A 
ATOM      6  C   LIG    1       -2.863   1.061  -0.183  0.00  0.00    +0.028 A 
ATOM      7 CL   LIG    1       -5.297  -2.125  -0.089  0.00  0.00    -0.084 Cl
ATOM      8  C   LIG    1       -1.599   0.448  -0.141  0.00  0.00    +0.050 A 
ATOM      9  N   LIG    1       -0.312   0.981  -0.172  0.00  0.00    -0.332 N 
ATOM     10  C   LIG    1        0.607  -0.059  -0.047  0.00  0.00    +0.025 A 
ENDROOT
BRANCH   1  11
ATOM     11  C   LIG    1        0.526  -2.660   0.150  0.00  0.00    +0.038 C 
BRANCH  11  12
ATOM     12  C   LIG    1        0.372  -3.252   1.564  0.00  0.00    +0.009 C 
BRANCH  12  13
ATOM     13  C   LIG    1        1.125  -2.471   2.660  0.00  0.00    +0.035 C 
BRANCH  13  17
ATOM     14  C   LIG    1        0.657  -4.262   6.587  0.00  0.00    +0.059 A 
ATOM     15  C   LIG    1        1.728  -4.621   5.745  0.00  0.00    +0.015 A 
ATOM     16  C   LIG    1        1.880  -4.046   4.486  0.00  0.00    +0.004 A 
ATOM     17  C   LIG    1        0.964  -3.097   4.037  0.00  0.00    -0.047 A 
ATOM     18  C   LIG    1       -0.105  -2.725   4.851  0.00  0.00    +0.004 A 
ATOM     19  C   LIG    1       -0.255  -3.301   6.110  0.00  0.00    +0.015 A 
BRANCH  14  20
ATOM     20  C   LIG    1        0.491  -4.890   7.957  0.00  0.00    +0.337 C 
ATOM     21  O   LIG    1        1.338  -5.731   8.345  0.00  0.00    -0.245 OA
BRANCH  20  22
ATOM     22  O   LIG    1       -0.489  -4.551   8.664  0.00  0.00    -0.477 OA
ATOM     23  H   LIG    1       -1.272  -5.064   8.656  0.00  0.00    +0.295 HD
ENDBRANCH  20  22
ENDBRANCH  14  20
ENDBRANCH  13  17
ENDBRANCH  12  13
ENDBRANCH  11  12
ENDBRANCH   1  11
BRANCH   9  24
ATOM     24  C   LIG    1        0.025   2.425  -0.228  0.00  0.00    +0.148 C 
BRANCH  24  25
ATOM     25  C   LIG    1       -0.765   3.220  -1.285  0.00  0.00    -0.020 A 
ATOM     26  C   LIG    1       -0.668   2.848  -2.630  0.00  0.00    +0.006 A 
ATOM     27  C   LIG    1       -1.357   3.551  -3.614  0.00  0.00    +0.000 A 
ATOM     28  C   LIG    1       -2.145   4.641  -3.255  0.00  0.00    +0.000 A 
ATOM     29  C   LIG    1       -2.246   5.032  -1.922  0.00  0.00    +0.000 A 
ATOM     30  C   LIG    1       -1.556   4.327  -0.940  0.00  0.00    +0.006 A 
ENDBRANCH  24  25
BRANCH  24  31
ATOM     31  C   LIG    1        0.148   3.092   1.154  0.00  0.00    -0.020 A 
ATOM     32  C   LIG    1       -0.639   2.688   2.241  0.00  0.00    +0.006 A 
ATOM     33  C   LIG    1       -0.485   3.295   3.484  0.00  0.00    +0.000 A 
ATOM     34  C   LIG    1        0.461   4.303   3.648  0.00  0.00    +0.000 A 
ATOM     35  C   LIG    1        1.257   4.707   2.579  0.00  0.00    +0.000 A 
ATOM     36  C   LIG    1        1.103   4.100   1.337  0.00  0.00    +0.006 A 
ENDBRANCH  24  31
ENDBRANCH   9  24
BRANCH  10  37
ATOM     37  C   LIG    1        2.116   0.168   0.024  0.00  0.00    +0.070 C 
BRANCH  37  38
ATOM     38  C   LIG    1        2.845  -0.095  -1.308  0.00  0.00    +0.111 C 
BRANCH  38  39
ATOM     39  N   LIG    1        2.344   0.757  -2.405  0.00  0.00    -0.194 NA
ATOM     40  H   LIG    1        1.748   1.534  -2.105  0.00  0.00    +0.148 HD
BRANCH  39  41
ATOM     41  S   LIG    1        1.876   0.009  -3.929  0.00  0.00    +0.034 S 
ATOM     42  O   LIG    1        2.926  -0.945  -4.300  0.00  0.00    -0.158 OA
ATOM     43  O   LIG    1        1.503   1.095  -4.842  0.00  0.00    -0.158 OA
BRANCH  41  44
ATOM     44  C   LIG    1        0.304  -0.954  -3.485  0.00  0.00    +0.220 C 
BRANCH  44  45
ATOM     45  C   LIG    1       -0.380  -1.545  -4.714  0.00  0.00    -0.013 A 
ATOM     46  C   LIG    1       -1.131  -0.671  -5.509  0.00  0.00    +0.006 A 
ATOM     47  C   LIG    1       -1.787  -1.127  -6.649  0.00  0.00    +0.000 A 
ATOM     48  C   LIG    1       -1.705  -2.469  -7.003  0.00  0.00    +0.001 A 
ATOM     49  C   LIG    1       -0.970  -3.353  -6.216  0.00  0.00    +0.013 A 
ATOM     50  C   LIG    1       -0.303  -2.913  -5.061  0.00  0.00    +0.060 A 
BRANCH  50  51
ATOM     51  C   LIG    1        0.475  -3.932  -4.216  0.00  0.00    +0.418 C 
ATOM     52  F   LIG    1       -0.123  -4.074  -3.033  0.00  0.00    -0.166 F 
ATOM     53  F   LIG    1        1.730  -3.530  -4.021  0.00  0.00    -0.166 F 
ATOM     54  F   LIG    1        0.529  -5.138  -4.786  0.00  0.00    -0.166 F 
ENDBRANCH  50  51
ENDBRANCH  44  45
ENDBRANCH  41  44
ENDBRANCH  39  41
ENDBRANCH  38  39
ENDBRANCH  37  38
ENDBRANCH  10  37
TORSDOF 16
