REMARK  Name = DB15688
REMARK                            x       y       z     vdW  Elec       q    Type
REMARK                         _______ _______ _______ _____ _____    ______ ____
ROOT
ATOM      1  C   LIG    1        1.165   0.541  -0.329  0.00  0.00    +0.165 C 
ENDROOT
BRANCH   1   2
ATOM      2  N   LIG    1        1.314   1.142  -1.664  0.00  0.00    -0.288 N 
ATOM      3  H   LIG    1        1.842   2.002  -1.684  0.00  0.00    +0.151 HD
ATOM      4  C   LIG    1        0.828   0.670  -2.833  0.00  0.00    +0.303 C 
ATOM      5  N   LIG    1        0.928   1.537  -3.882  0.00  0.00    -0.286 N 
ATOM      6  C   LIG    1        0.356   1.149  -5.191  0.00  0.00    +0.110 C 
ATOM      7  C   LIG    1        1.452   0.384  -5.977  0.00  0.00    +0.027 C 
ATOM      8  C   LIG    1        2.708   1.277  -6.149  0.00  0.00    +0.027 C 
ATOM      9  C   LIG    1        3.203   1.727  -4.750  0.00  0.00    +0.027 C 
ATOM     10  C   LIG    1        2.067   2.478  -4.010  0.00  0.00    +0.110 C 
ATOM     11  O   LIG    1        0.219  -0.401  -2.902  0.00  0.00    -0.253 OA
BRANCH   8  12
ATOM     12  C   LIG    1        3.781   0.597  -7.026  0.00  0.00    +0.021 A 
ATOM     13  C   LIG    1        3.509   0.565  -8.475  0.00  0.00    +0.253 A 
ATOM     14  O   LIG    1        2.513   1.040  -9.020  0.00  0.00    -0.268 OA
ATOM     15  N   LIG    1        4.465  -0.042  -9.225  0.00  0.00    -0.322 N 
ATOM     16  H   LIG    1        4.275  -0.062 -10.216  0.00  0.00    +0.169 HD
ATOM     17  C   LIG    1        5.657  -0.619  -8.758  0.00  0.00    +0.049 A 
ATOM     18  C   LIG    1        6.561  -1.214  -9.638  0.00  0.00    +0.026 A 
ATOM     19  C   LIG    1        7.737  -1.781  -9.141  0.00  0.00    +0.002 A 
ATOM     20  C   LIG    1        8.007  -1.753  -7.771  0.00  0.00    +0.001 A 
ATOM     21  C   LIG    1        7.104  -1.157  -6.888  0.00  0.00    +0.010 A 
ATOM     22  C   LIG    1        5.928  -0.590  -7.384  0.00  0.00    -0.001 A 
ATOM     23  C   LIG    1        4.924   0.055  -6.523  0.00  0.00    +0.019 A 
ENDBRANCH   8  12
ENDBRANCH   1   2
BRANCH   1  28
ATOM     24  N   LIG    1       -2.735   3.372  -1.417  0.00  0.00    -0.296 NA
ATOM     25  C   LIG    1       -1.272   3.495  -1.420  0.00  0.00    +0.103 C 
ATOM     26  C   LIG    1       -0.634   2.928  -0.130  0.00  0.00    +0.123 C 
ATOM     27  N   LIG    1       -1.128   1.552   0.072  0.00  0.00    -0.298 N 
ATOM     28  C   LIG    1       -0.332   0.445   0.111  0.00  0.00    +0.236 C 
ATOM     29  O   LIG    1       -0.766  -0.665   0.431  0.00  0.00    -0.274 OA
ATOM     30  C   LIG    1       -2.595   1.415   0.135  0.00  0.00    +0.123 C 
ATOM     31  C   LIG    1       -3.176   1.991  -1.179  0.00  0.00    +0.103 C 
BRANCH  24  36
ATOM     32  C   LIG    1       -5.696   5.058  -6.090  0.00  0.00    +0.104 C 
ATOM     33  N   LIG    1       -5.135   4.338  -4.952  0.00  0.00    -0.305 NA
ATOM     34  C   LIG    1       -3.704   4.082  -5.155  0.00  0.00    +0.085 C 
ATOM     35  C   LIG    1       -3.085   3.303  -3.977  0.00  0.00    +0.034 C 
ATOM     36  C   LIG    1       -3.337   3.992  -2.610  0.00  0.00    +0.059 C 
ATOM     37  C   LIG    1       -4.844   4.303  -2.475  0.00  0.00    +0.034 C 
ATOM     38  C   LIG    1       -5.407   5.053  -3.701  0.00  0.00    +0.085 C 
ENDBRANCH  24  36
ENDBRANCH   1  28
BRANCH   1  39
ATOM     39  C   LIG    1        1.966  -0.794  -0.221  0.00  0.00    +0.067 C 
BRANCH  39  40
ATOM     40  C   LIG    1        2.312  -1.168   1.219  0.00  0.00    -0.044 A 
ATOM     41  C   LIG    1        3.322  -0.473   1.890  0.00  0.00    +0.009 A 
ATOM     42  C   LIG    1        3.693  -0.759   3.210  0.00  0.00    -0.025 A 
ATOM     43  C   LIG    1        4.801   0.050   3.861  0.00  0.00    +0.046 C 
ATOM     44  C   LIG    1        2.984  -1.798   3.829  0.00  0.00    +0.069 A 
ATOM     45  N   LIG    1        3.063  -2.351   5.094  0.00  0.00    -0.277 N 
ATOM     46  H   LIG    1        3.685  -2.086   5.843  0.00  0.00    +0.189 HD
ATOM     47  N   LIG    1        2.178  -3.349   5.270  0.00  0.00    -0.181 NA
ATOM     48  C   LIG    1        1.516  -3.469   4.149  0.00  0.00    +0.142 A 
ATOM     49  C   LIG    1        1.959  -2.525   3.175  0.00  0.00    +0.020 A 
ATOM     50  C   LIG    1        1.625  -2.206   1.853  0.00  0.00    +0.015 A 
ENDBRANCH  39  40
ENDBRANCH   1  39
TORSDOF 6
