REMARK  Name = DB15087
REMARK                            x       y       z     vdW  Elec       q    Type
REMARK                         _______ _______ _______ _____ _____    ______ ____
ROOT
ATOM      1  C   LIG    1       -0.127  -0.054  -0.043  0.00  0.00    +0.181 C 
ENDROOT
BRANCH   1   2
ATOM      2  O   LIG    1       -0.705   1.233  -0.207  0.00  0.00    -0.386 OA
ATOM      3  H   LIG    1       -1.643   1.175  -0.005  0.00  0.00    +0.210 HD
ENDBRANCH   1   2
BRANCH   1   4
ATOM      4  C   LIG    1       -0.631  -0.654   1.311  0.00  0.00    +0.171 C 
BRANCH   4   5
ATOM      5  O   LIG    1       -0.179  -1.989   1.447  0.00  0.00    -0.387 OA
ATOM      6  H   LIG    1        0.767  -2.007   1.283  0.00  0.00    +0.210 HD
ENDBRANCH   4   5
BRANCH   4   7
ATOM      7  C   LIG    1       -2.172  -0.692   1.486  0.00  0.00    +0.189 C 
BRANCH   7   8
ATOM      8  O   LIG    1       -2.718   0.578   1.783  0.00  0.00    -0.392 OA
ATOM      9  H   LIG    1       -3.663   0.478   1.926  0.00  0.00    +0.210 HD
ENDBRANCH   7   8
ENDBRANCH   4   7
ENDBRANCH   1   4
BRANCH   1  10
ATOM     10  C   LIG    1        1.429   0.068  -0.176  0.00  0.00    +0.213 C 
BRANCH  10  11
ATOM     11  C   LIG    1        1.887   0.737  -1.491  0.00  0.00    +0.189 C 
ATOM     12  O   LIG    1        2.237   1.919  -1.485  0.00  0.00    -0.292 OA
BRANCH  11  13
ATOM     13  C   LIG    1        1.858  -0.107  -2.781  0.00  0.00    +0.232 C 
BRANCH  13  14
ATOM     14  O   LIG    1        2.281   0.662  -3.893  0.00  0.00    -0.387 OA
ATOM     15  H   LIG    1        1.667   1.390  -4.012  0.00  0.00    +0.210 HD
ENDBRANCH  13  14
ENDBRANCH  11  13
ENDBRANCH  10  11
BRANCH  10  16
ATOM     16  O   LIG    1        2.061  -1.199  -0.105  0.00  0.00    -0.382 OA
ATOM     17  H   LIG    1        3.012  -1.066  -0.094  0.00  0.00    +0.210 HD
ENDBRANCH  10  16
ENDBRANCH   1  10
TORSDOF 10
