REMARK  Name = DB15029
REMARK                            x       y       z     vdW  Elec       q    Type
REMARK                         _______ _______ _______ _____ _____    ______ ____
ROOT
ATOM      1  C   LIG    1        1.559  -0.182   0.163  0.00  0.00    +0.016 A 
ATOM      2  C   LIG    1        2.123  -0.641  -1.036  0.00  0.00    +0.146 A 
ATOM      3  O   LIG    1        1.261  -1.110  -2.011  0.00  0.00    -0.441 OA
ATOM      4  C   LIG    1        1.782  -1.553  -3.186  0.00  0.00    +0.193 A 
ATOM      5  C   LIG    1        3.097  -1.588  -3.477  0.00  0.00    +0.114 A 
ATOM      6  C   LIG    1        4.102  -1.117  -2.531  0.00  0.00    +0.194 A 
ATOM      7  O   LIG    1        5.312  -1.125  -2.756  0.00  0.00    -0.287 OA
ATOM      8  C   LIG    1        3.516  -0.612  -1.245  0.00  0.00    +0.065 A 
ATOM      9  C   LIG    1        4.338  -0.105  -0.230  0.00  0.00    +0.028 A 
ATOM     10  C   LIG    1        3.796   0.361   0.973  0.00  0.00    +0.038 A 
ATOM     11  C   LIG    1        2.407   0.334   1.151  0.00  0.00    +0.022 A 
ENDROOT
BRANCH   4  12
ATOM     12  N   LIG    1        0.761  -1.964  -4.013  0.00  0.00    -0.297 N 
ATOM     13  C   LIG    1       -0.138  -3.039  -3.572  0.00  0.00    +0.136 C 
ATOM     14  C   LIG    1       -0.947  -3.611  -4.754  0.00  0.00    +0.179 C 
ATOM     15  O   LIG    1       -1.650  -2.563  -5.407  0.00  0.00    -0.377 OA
ATOM     16  C   LIG    1       -0.757  -1.599  -5.949  0.00  0.00    +0.179 C 
ATOM     17  C   LIG    1        0.070  -0.950  -4.820  0.00  0.00    +0.136 C 
ENDBRANCH   4  12
BRANCH  10  18
ATOM     18  C   LIG    1        4.707   0.924   2.037  0.00  0.00    +0.246 C 
ATOM     19  N   LIG    1        4.577   0.488   3.319  0.00  0.00    -0.304 N 
ATOM     20  C   LIG    1        5.224   1.179   4.437  0.00  0.00    +0.132 C 
ATOM     21  C   LIG    1        3.826  -0.700   3.737  0.00  0.00    +0.132 C 
ATOM     22  O   LIG    1        5.526   1.784   1.705  0.00  0.00    -0.270 OA
ENDBRANCH  10  18
BRANCH   1  24
ATOM     23  C   LIG    1       -0.333  -0.921   1.732  0.00  0.00    +0.033 C 
ATOM     24  C   LIG    1        0.046  -0.246   0.401  0.00  0.00    +0.101 C 
BRANCH  24  25
ATOM     25  N   LIG    1       -0.510   1.103   0.304  0.00  0.00    -0.337 N 
ATOM     26  H   LIG    1       -0.464   1.662   1.144  0.00  0.00    +0.147 HD
BRANCH  25  27
ATOM     27  C   LIG    1       -1.479   1.481  -0.643  0.00  0.00    +0.033 A 
ATOM     28  C   LIG    1       -1.788   0.734  -1.791  0.00  0.00    +0.061 A 
ATOM     29  C   LIG    1       -2.759   1.181  -2.687  0.00  0.00    +0.128 A 
ATOM     30  F   LIG    1       -3.048   0.452  -3.789  0.00  0.00    -0.205 F 
ATOM     31  C   LIG    1       -3.430   2.379  -2.451  0.00  0.00    +0.076 A 
ATOM     32  C   LIG    1       -3.126   3.133  -1.319  0.00  0.00    +0.128 A 
ATOM     33  F   LIG    1       -3.773   4.298  -1.089  0.00  0.00    -0.205 F 
ATOM     34  C   LIG    1       -2.154   2.686  -0.423  0.00  0.00    +0.061 A 
ENDBRANCH  25  27
ENDBRANCH  24  25
ENDBRANCH   1  24
TORSDOF 5
