REMARK  Name = DB15412
REMARK                            x       y       z     vdW  Elec       q    Type
REMARK                         _______ _______ _______ _____ _____    ______ ____
ROOT
ATOM      1  C   LIG    1        1.442   0.028  -0.231  0.00  0.00    +0.120 C 
ATOM      2  C   LIG    1        2.088  -0.534  -1.543  0.00  0.00    +0.140 C 
ATOM      3  C   LIG    1        3.026   0.652  -1.913  0.00  0.00    +0.133 C 
ATOM      4  O   LIG    1        3.252   1.234  -0.634  0.00  0.00    -0.372 OA
ATOM      5  C   LIG    1        2.361   1.884  -2.548  0.00  0.00    +0.035 C 
ATOM      6  C   LIG    1        1.488   2.395  -1.407  0.00  0.00    +0.035 C 
ATOM      7  C   LIG    1        1.919   1.500  -0.226  0.00  0.00    +0.131 C 
ENDROOT
BRANCH   1  14
ATOM      8  C   LIG    1       -1.746  -4.133   3.235  0.00  0.00    -0.096 C 
ATOM      9  N   LIG    1       -1.520  -3.521   1.839  0.00  0.00    +0.380 N 
ATOM     10  H   LIG    1       -1.846  -4.166   1.133  0.00  0.00    -0.082 HD
ATOM     11  C   LIG    1       -0.017  -3.258   1.604  0.00  0.00    -0.060 C 
ATOM     12  C   LIG    1        0.198  -2.639   0.204  0.00  0.00    +0.089 C 
ATOM     13  N   LIG    1       -0.616  -1.409   0.105  0.00  0.00    -0.305 N 
ATOM     14  C   LIG    1       -0.088  -0.155   0.008  0.00  0.00    +0.222 C 
ATOM     15  O   LIG    1       -0.796   0.850   0.106  0.00  0.00    -0.275 OA
ATOM     16  C   LIG    1       -2.069  -1.608   0.289  0.00  0.00    +0.089 C 
ATOM     17  C   LIG    1       -2.308  -2.202   1.695  0.00  0.00    -0.060 C 
ENDBRANCH   1  14
BRANCH   2  18
ATOM     18  C   LIG    1        1.233  -1.113  -2.713  0.00  0.00    +0.311 C 
ATOM     19  O   LIG    1        0.230  -0.479  -3.114  0.00  0.00    -0.251 OA
BRANCH  18  20
ATOM     20  O   LIG    1        1.606  -2.203  -3.203  0.00  0.00    -0.480 OA
ATOM     21  H   LIG    1        1.123  -2.589  -3.907  0.00  0.00    +0.295 HD
ENDBRANCH  18  20
ENDBRANCH   2  18
TORSDOF 3
