REMARK  Name = DB15343
REMARK                            x       y       z     vdW  Elec       q    Type
REMARK                         _______ _______ _______ _____ _____    ______ ____
ROOT
ATOM      1  C   LIG    1        1.609   0.234   0.014  0.00  0.00    -0.031 A 
ATOM      2  C   LIG    1        2.215  -0.409  -1.070  0.00  0.00    +0.028 A 
ATOM      3  C   LIG    1        3.587  -0.683  -1.057  0.00  0.00    +0.034 A 
ATOM      4  C   LIG    1        4.349  -0.331   0.059  0.00  0.00    +0.027 A 
ATOM      5  C   LIG    1        3.760   0.340   1.133  0.00  0.00    -0.042 A 
ATOM      6  C   LIG    1        2.393   0.627   1.103  0.00  0.00    +0.009 A 
ENDROOT
BRANCH   5   7
ATOM      7  C   LIG    1        4.595   0.736   2.337  0.00  0.00    +0.019 C 
ATOM      8  C   LIG    1        5.879   1.518   2.218  0.00  0.00    +0.009 C 
ATOM      9  C   LIG    1        4.654   2.151   2.855  0.00  0.00    +0.009 C 
ENDBRANCH   5   7
BRANCH   3  10
ATOM     10  N   LIG    1        4.217  -1.303  -2.147  0.00  0.00    -0.284 N 
ATOM     11  H   LIG    1        4.806  -2.092  -1.925  0.00  0.00    +0.155 HD
BRANCH  10  12
ATOM     12  C   LIG    1        4.167  -0.951  -3.504  0.00  0.00    +0.220 A 
ATOM     13  N   LIG    1        3.494   0.174  -3.869  0.00  0.00    -0.213 NA
ATOM     14  C   LIG    1        3.525   0.539  -5.179  0.00  0.00    +0.096 A 
ATOM     15  C   LIG    1        4.233  -0.223  -6.126  0.00  0.00    +0.085 A 
ATOM     16 CL   LIG    1        4.362   0.209  -7.795  0.00  0.00    -0.080 Cl
ATOM     17  C   LIG    1        4.877  -1.373  -5.661  0.00  0.00    +0.136 A 
ATOM     18  N   LIG    1        4.856  -1.750  -4.356  0.00  0.00    -0.221 NA
BRANCH  14  19
ATOM     19  C   LIG    1        2.793   1.815  -5.465  0.00  0.00    +0.027 A 
ATOM     20  C   LIG    1        2.674   2.970  -4.601  0.00  0.00    +0.009 A 
ATOM     21  C   LIG    1        3.164   3.296  -3.324  0.00  0.00    +0.011 A 
ATOM     22  C   LIG    1        2.825   4.521  -2.754  0.00  0.00    +0.004 A 
ATOM     23  C   LIG    1        2.014   5.435  -3.425  0.00  0.00    -0.048 A 
ATOM     24  C   LIG    1        1.519   5.162  -4.704  0.00  0.00    +0.029 A 
ATOM     25  C   LIG    1        1.684   6.761  -2.764  0.00  0.00    +0.044 C 
ATOM     26  C   LIG    1        1.858   3.931  -5.274  0.00  0.00    +0.047 A 
ATOM     27  N   LIG    1        1.531   3.386  -6.494  0.00  0.00    -0.360 N 
ATOM     28  H   LIG    1        0.969   3.800  -7.224  0.00  0.00    +0.165 HD
ATOM     29  C   LIG    1        2.086   2.138  -6.611  0.00  0.00    +0.093 A 
ENDBRANCH  14  19
ENDBRANCH  10  12
ENDBRANCH   3  10
BRANCH   1  30
ATOM     30  C   LIG    1        0.129   0.596  -0.027  0.00  0.00    +0.119 C 
BRANCH  30  39
ATOM     31  C   LIG    1       -0.796   1.373  -4.445  0.00  0.00    -0.012 C 
ATOM     32  C   LIG    1       -0.935   1.179  -2.928  0.00  0.00    -0.060 C 
ATOM     33  N   LIG    1       -2.357   1.640  -2.548  0.00  0.00    +0.384 N 
ATOM     34  H   LIG    1       -3.030   1.018  -2.972  0.00  0.00    -0.085 HD
ATOM     35  H   LIG    1       -2.522   2.553  -2.946  0.00  0.00    -0.085 HD
ATOM     36  C   LIG    1       -2.612   1.700  -1.028  0.00  0.00    -0.060 C 
ATOM     37  C   LIG    1       -3.980   2.374  -0.832  0.00  0.00    -0.012 C 
ATOM     38  C   LIG    1       -1.446   2.442  -0.321  0.00  0.00    +0.069 C 
ATOM     39  N   LIG    1       -0.120   1.906  -0.646  0.00  0.00    -0.301 NA
ATOM     40  C   LIG    1        0.116   1.960  -2.096  0.00  0.00    +0.069 C 
ENDBRANCH  30  39
ENDBRANCH   1  30
TORSDOF 6
