REMARK  Name = DB15133
REMARK                            x       y       z     vdW  Elec       q    Type
REMARK                         _______ _______ _______ _____ _____    ______ ____
ROOT
ATOM      1  C   LIG    1       -2.146  -1.512   0.205  0.00  0.00    -0.025 A 
ATOM      2  C   LIG    1       -2.807  -0.307   0.452  0.00  0.00    +0.005 A 
ATOM      3  C   LIG    1       -2.083   0.875   0.571  0.00  0.00    +0.001 A 
ATOM      4  C   LIG    1       -0.695   0.858   0.444  0.00  0.00    +0.011 A 
ATOM      5  C   LIG    1        0.006  -0.336   0.194  0.00  0.00    +0.019 A 
ATOM      6  C   LIG    1       -0.753  -1.515   0.077  0.00  0.00    +0.017 A 
ENDROOT
BRANCH   5   7
ATOM      7  C   LIG    1        1.505  -0.350   0.058  0.00  0.00    +0.160 A 
ATOM      8  N   LIG    1        2.113  -1.545  -0.190  0.00  0.00    -0.232 NA
ATOM      9  C   LIG    1        3.466  -1.539  -0.308  0.00  0.00    +0.160 A 
ATOM     10  C   LIG    1        4.233  -0.369  -0.185  0.00  0.00    +0.157 A 
ATOM     11  C   LIG    1        3.519   0.804   0.067  0.00  0.00    +0.160 A 
ATOM     12  N   LIG    1        2.167   0.835   0.191  0.00  0.00    -0.232 NA
BRANCH  10  13
ATOM     13  O   LIG    1        5.607  -0.291  -0.292  0.00  0.00    -0.489 OA
BRANCH  13  14
ATOM     14  C   LIG    1        6.347  -1.486  -0.528  0.00  0.00    +0.232 C 
BRANCH  14  15
ATOM     15  C   LIG    1        7.854  -1.162  -0.562  0.00  0.00    +0.029 C 
ATOM     16  C   LIG    1        8.376  -0.575   0.764  0.00  0.00    +0.022 C 
ATOM     17  C   LIG    1        9.875  -0.221   0.669  0.00  0.00    +0.084 C 
ATOM     18  N   LIG    1       10.684  -1.381   0.263  0.00  0.00    -0.305 NA
ATOM     19  C   LIG    1       12.091  -1.014   0.138  0.00  0.00    +0.104 C 
ATOM     20  C   LIG    1       10.208  -2.046  -0.960  0.00  0.00    +0.084 C 
ATOM     21  C   LIG    1        8.709  -2.405  -0.869  0.00  0.00    +0.022 C 
ENDBRANCH  14  15
ENDBRANCH  13  14
ENDBRANCH  10  13
ENDBRANCH   5   7
BRANCH   1  22
ATOM     22  C   LIG    1       -2.933  -2.816   0.073  0.00  0.00    +0.182 C 
BRANCH  22  25
ATOM     23  C   LIG    1       -6.109  -2.961   1.885  0.00  0.00    +0.092 A 
ATOM     24  N   LIG    1       -5.209  -2.816   0.965  0.00  0.00    -0.168 NA
ATOM     25  N   LIG    1       -3.856  -3.093   1.191  0.00  0.00    -0.225 N 
ATOM     26  C   LIG    1       -3.318  -3.553   2.376  0.00  0.00    +0.268 A 
ATOM     27  O   LIG    1       -2.127  -3.784   2.591  0.00  0.00    -0.266 OA
ATOM     28  C   LIG    1       -4.340  -3.732   3.393  0.00  0.00    +0.074 A 
ATOM     29  C   LIG    1       -5.644  -3.450   3.172  0.00  0.00    +0.035 A 
BRANCH  23  34
ATOM     30  C   LIG    1       -9.898  -2.994   2.222  0.00  0.00    +0.052 A 
ATOM     31  C   LIG    1      -10.262  -2.092   1.219  0.00  0.00    +0.019 A 
ATOM     32  C   LIG    1       -9.280  -1.487   0.439  0.00  0.00    +0.002 A 
ATOM     33  C   LIG    1       -7.934  -1.777   0.658  0.00  0.00    +0.010 A 
ATOM     34  C   LIG    1       -7.545  -2.681   1.660  0.00  0.00    +0.003 A 
ATOM     35  C   LIG    1       -8.548  -3.285   2.440  0.00  0.00    +0.029 A 
BRANCH  30  36
ATOM     36  C   LIG    1      -10.923  -3.629   3.037  0.00  0.00    +0.099 C 
ATOM     37  N   LIG    1      -11.737  -4.134   3.686  0.00  0.00    -0.191 NA
ENDBRANCH  30  36
ENDBRANCH  23  34
ENDBRANCH  22  25
ENDBRANCH   1  22
TORSDOF 8
