REMARK  Name = DB15348
REMARK                            x       y       z     vdW  Elec       q    Type
REMARK                         _______ _______ _______ _____ _____    ______ ____
ROOT
ATOM      1  C   LIG    1        1.845  -1.454   0.000  0.00  0.00    -0.007 A 
ATOM      2  C   LIG    1        3.238  -1.701   0.000  0.00  0.00    -0.038 A 
ATOM      3  C   LIG    1        3.694  -3.028   0.000  0.00  0.00    +0.004 A 
ATOM      4  C   LIG    1        2.801  -4.096   0.000  0.00  0.00    +0.000 A 
ATOM      5  C   LIG    1        1.432  -3.852   0.000  0.00  0.00    +0.000 A 
ATOM      6  C   LIG    1        0.959  -2.543   0.000  0.00  0.00    +0.007 A 
ENDROOT
BRANCH   2   7
ATOM      7  C   LIG    1        4.286  -0.573   0.000  0.00  0.00    +0.016 C 
ATOM      8  C   LIG    1        5.154  -0.581   1.281  0.00  0.00    -0.011 C 
ATOM      9  C   LIG    1        6.197   0.553   1.280  0.00  0.00    -0.082 C 
ATOM     10  N   LIG    1        7.047   0.469   0.000  0.00  0.00    +0.379 N 
ATOM     11  H   LIG    1        7.725   1.218   0.000  0.00  0.00    -0.086 HD
ATOM     12  H   LIG    1        7.564  -0.399   0.000  0.00  0.00    -0.086 HD
ATOM     13  C   LIG    1        6.197   0.553  -1.280  0.00  0.00    -0.082 C 
ATOM     14  C   LIG    1        5.154  -0.581  -1.281  0.00  0.00    -0.011 C 
ENDBRANCH   2   7
BRANCH   1  15
ATOM     15  C   LIG    1        1.291  -0.024   0.000  0.00  0.00    +0.265 C 
BRANCH  15  16
ATOM     16  O   LIG    1       -0.134   0.007   0.000  0.00  0.00    -0.482 OA
BRANCH  16  22
ATOM     17  F   LIG    1       -2.310   5.081   0.000  0.00  0.00    -0.205 F 
ATOM     18  C   LIG    1       -1.778   3.838   0.000  0.00  0.00    +0.129 A 
ATOM     19  C   LIG    1       -1.504   3.197  -1.208  0.00  0.00    +0.080 A 
ATOM     20  C   LIG    1       -0.953   1.915  -1.210  0.00  0.00    +0.170 A 
ATOM     21  F   LIG    1       -0.692   1.300  -2.387  0.00  0.00    -0.201 F 
ATOM     22  C   LIG    1       -0.669   1.271   0.000  0.00  0.00    +0.191 A 
ATOM     23  C   LIG    1       -0.953   1.915   1.210  0.00  0.00    +0.170 A 
ATOM     24  F   LIG    1       -0.692   1.300   2.387  0.00  0.00    -0.201 F 
ATOM     25  C   LIG    1       -1.504   3.197   1.208  0.00  0.00    +0.080 A 
ENDBRANCH  16  22
ENDBRANCH  15  16
ENDBRANCH   1  15
TORSDOF 4
