REMARK  Name = DB15382
REMARK                            x       y       z     vdW  Elec       q    Type
REMARK                         _______ _______ _______ _____ _____    ______ ____
ROOT
ATOM      1  C   LIG    1       -4.447   0.537   0.609  0.00  0.00    +0.017 A 
ATOM      2  C   LIG    1       -3.444   1.279  -0.019  0.00  0.00    +0.032 A 
ATOM      3  C   LIG    1       -2.163   0.717  -0.095  0.00  0.00    +0.042 A 
ATOM      4  S   LIG    1       -0.674   1.369  -0.781  0.00  0.00    -0.052 S 
ATOM      5  C   LIG    1        0.140  -0.117  -0.307  0.00  0.00    +0.167 A 
ATOM      6  N   LIG    1       -0.604  -1.004   0.292  0.00  0.00    -0.225 NA
ATOM      7  C   LIG    1       -1.889  -0.574   0.433  0.00  0.00    +0.080 A 
ATOM      8  C   LIG    1       -2.915  -1.308   1.047  0.00  0.00    +0.030 A 
ATOM      9  C   LIG    1       -4.186  -0.736   1.126  0.00  0.00    +0.017 A 
ENDROOT
BRANCH   5  10
ATOM     10  N   LIG    1        1.487  -0.373  -0.534  0.00  0.00    -0.248 N 
ATOM     11  H   LIG    1        1.812  -1.275  -0.216  0.00  0.00    +0.158 HD
ATOM     12  C   LIG    1        2.402   0.455  -1.081  0.00  0.00    +0.305 C 
ATOM     13  N   LIG    1        3.625  -0.100  -1.055  0.00  0.00    -0.298 N 
ATOM     14  H   LIG    1        3.704  -1.091  -0.884  0.00  0.00    +0.150 HD
ATOM     15  O   LIG    1        2.180   1.590  -1.511  0.00  0.00    -0.252 OA
BRANCH  13  16
ATOM     16  C   LIG    1        4.882   0.634  -1.199  0.00  0.00    +0.121 C 
BRANCH  16  17
ATOM     17  C   LIG    1        5.264   1.430   0.069  0.00  0.00    +0.103 C 
BRANCH  17  18
ATOM     18  N   LIG    1        6.421   2.312  -0.121  0.00  0.00    -0.297 NA
ATOM     19  C   LIG    1        6.569   3.206   1.037  0.00  0.00    +0.112 C 
ATOM     20  C   LIG    1        7.817   4.105   0.914  0.00  0.00    +0.175 C 
ATOM     21  O   LIG    1        8.974   3.304   0.703  0.00  0.00    -0.377 OA
ATOM     22  C   LIG    1        8.881   2.527  -0.485  0.00  0.00    +0.175 C 
ATOM     23  C   LIG    1        7.664   1.580  -0.409  0.00  0.00    +0.112 C 
ENDBRANCH  17  18
ENDBRANCH  16  17
ENDBRANCH  13  16
ENDBRANCH   5  10
BRANCH   1  24
ATOM     24  S   LIG    1       -6.070   1.234   0.727  0.00  0.00    -0.048 S 
BRANCH  24  31
ATOM     25  C   LIG    1       -8.802  -1.682   3.051  0.00  0.00    +0.092 A 
ATOM     26  C   LIG    1       -8.800  -1.614   4.452  0.00  0.00    +0.034 A 
ATOM     27  C   LIG    1       -7.992  -0.687   5.115  0.00  0.00    +0.052 A 
ATOM     28  C   LIG    1       -7.196   0.164   4.334  0.00  0.00    +0.179 A 
ATOM     29  N   LIG    1       -6.320   1.148   4.635  0.00  0.00    -0.127 NA
ATOM     30  N   LIG    1       -5.840   1.625   3.425  0.00  0.00    -0.120 NA
ATOM     31  C   LIG    1       -6.405   0.961   2.435  0.00  0.00    +0.217 A 
ATOM     32  N   LIG    1       -7.275   0.020   2.943  0.00  0.00    -0.187 N 
ATOM     33  N   LIG    1       -8.039  -0.861   2.272  0.00  0.00    -0.163 NA
BRANCH  25  38
ATOM     34  F   LIG    1      -12.058  -5.391   0.304  0.00  0.00    -0.205 F 
ATOM     35  C   LIG    1      -11.278  -4.502   0.958  0.00  0.00    +0.123 A 
ATOM     36  C   LIG    1      -11.054  -3.242   0.411  0.00  0.00    +0.039 A 
ATOM     37  C   LIG    1      -10.250  -2.329   1.087  0.00  0.00    +0.013 A 
ATOM     38  C   LIG    1       -9.661  -2.661   2.317  0.00  0.00    +0.002 A 
ATOM     39  C   LIG    1       -9.899  -3.936   2.850  0.00  0.00    +0.013 A 
ATOM     40  C   LIG    1      -10.702  -4.853   2.176  0.00  0.00    +0.039 A 
ENDBRANCH  25  38
ENDBRANCH  24  31
ENDBRANCH   1  24
TORSDOF 7
