REMARK  Name = DB15261
REMARK                            x       y       z     vdW  Elec       q    Type
REMARK                         _______ _______ _______ _____ _____    ______ ____
ROOT
ATOM      1  C   LIG    1       -4.146   1.252  -1.404  0.00  0.00    +0.055 A 
ATOM      2  C   LIG    1       -2.752   1.261  -1.530  0.00  0.00    +0.042 A 
ATOM      3  C   LIG    1       -1.923   1.040  -0.418  0.00  0.00    +0.079 A 
ATOM      4  C   LIG    1       -2.524   0.856   0.849  0.00  0.00    +0.055 A 
ATOM      5 CL   LIG    1       -1.615   0.678   2.316  0.00  0.00    -0.083 Cl
ATOM      6  C   LIG    1       -3.915   0.846   0.966  0.00  0.00    +0.023 A 
ATOM      7  C   LIG    1       -4.725   1.037  -0.149  0.00  0.00    +0.028 A 
ENDROOT
BRANCH   1  14
ATOM      8  C   LIG    1       -7.136  -0.652  -4.616  0.00  0.00    +0.154 C 
ATOM      9  N   LIG    1       -6.453   0.552  -4.105  0.00  0.00    -0.292 N 
ATOM     10  C   LIG    1       -6.695   1.838  -4.577  0.00  0.00    +0.131 A 
ATOM     11  C   LIG    1       -6.086   2.907  -4.019  0.00  0.00    +0.101 A 
ATOM     12  C   LIG    1       -5.250   2.772  -2.849  0.00  0.00    +0.262 A 
ATOM     13  O   LIG    1       -4.910   3.763  -2.197  0.00  0.00    -0.267 OA
ATOM     14  N   LIG    1       -4.965   1.457  -2.542  0.00  0.00    -0.229 N 
ATOM     15  C   LIG    1       -5.465   0.318  -3.163  0.00  0.00    +0.337 A 
ATOM     16  O   LIG    1       -4.985  -0.806  -2.960  0.00  0.00    -0.246 OA
BRANCH  10  17
ATOM     17  C   LIG    1       -7.627   1.994  -5.794  0.00  0.00    +0.433 C 
ATOM     18  F   LIG    1       -8.883   1.717  -5.442  0.00  0.00    -0.164 F 
ATOM     19  F   LIG    1       -7.257   1.182  -6.785  0.00  0.00    -0.164 F 
ATOM     20  F   LIG    1       -7.599   3.241  -6.270  0.00  0.00    -0.164 F 
ENDBRANCH  10  17
ENDBRANCH   1  14
BRANCH   3  21
ATOM     21  C   LIG    1       -0.443   1.088  -0.639  0.00  0.00    +0.342 C 
ATOM     22  O   LIG    1        0.090   1.813  -1.482  0.00  0.00    -0.245 OA
BRANCH  21  23
ATOM     23  O   LIG    1        0.220   0.139   0.089  0.00  0.00    -0.444 OA
BRANCH  23  24
ATOM     24  C   LIG    1        1.644  -0.105   0.086  0.00  0.00    +0.204 C 
ATOM     25  C   LIG    1        2.409   1.166   0.554  0.00  0.00    +0.068 C 
ATOM     26  C   LIG    1        2.113  -0.556  -1.326  0.00  0.00    +0.068 C 
BRANCH  24  27
ATOM     27  C   LIG    1        1.917  -1.254   1.097  0.00  0.00    +0.351 C 
ATOM     28  O   LIG    1        1.012  -1.791   1.744  0.00  0.00    -0.246 OA
BRANCH  27  29
ATOM     29  O   LIG    1        3.229  -1.587   1.183  0.00  0.00    -0.458 OA
BRANCH  29  30
ATOM     30  C   LIG    1        3.661  -2.622   2.056  0.00  0.00    +0.259 C 
BRANCH  30  31
ATOM     31  C   LIG    1        5.159  -2.804   1.950  0.00  0.00    +0.006 C 
ATOM     32  C   LIG    1        5.763  -3.958   1.628  0.00  0.00    +0.007 C 
ENDBRANCH  30  31
ENDBRANCH  29  30
ENDBRANCH  27  29
ENDBRANCH  24  27
ENDBRANCH  23  24
ENDBRANCH  21  23
ENDBRANCH   3  21
TORSDOF 9
