REMARK  Name = DB15347
REMARK                            x       y       z     vdW  Elec       q    Type
REMARK                         _______ _______ _______ _____ _____    ______ ____
ROOT
ATOM      1  C   LIG    1        1.628  -0.179  -0.479  0.00  0.00    +0.075 A 
ATOM      2  C   LIG    1        2.489   0.082  -1.556  0.00  0.00    +0.146 A 
ATOM      3  F   LIG    1        1.996   0.441  -2.765  0.00  0.00    -0.204 F 
ATOM      4  C   LIG    1        3.869   0.002  -1.417  0.00  0.00    +0.055 A 
ATOM      5  C   LIG    1        4.491  -0.317  -0.203  0.00  0.00    +0.063 A 
ATOM      6  C   LIG    1        3.627  -0.561   0.881  0.00  0.00    +0.061 A 
ATOM      7  N   LIG    1        3.897  -0.883   2.193  0.00  0.00    -0.357 N 
ATOM      8  H   LIG    1        4.810  -1.004   2.608  0.00  0.00    +0.166 HD
ATOM      9  C   LIG    1        2.747  -1.038   2.920  0.00  0.00    +0.017 A 
ATOM     10  C   LIG    1        2.838  -1.395   4.387  0.00  0.00    +0.063 C 
ATOM     11  C   LIG    1        1.662  -0.826   2.083  0.00  0.00    -0.021 A 
ATOM     12  C   LIG    1        0.197  -0.922   2.463  0.00  0.00    +0.046 C 
ATOM     13  C   LIG    1        2.201  -0.499   0.776  0.00  0.00    +0.027 A 
ENDROOT
BRANCH   1  16
ATOM     14  C   LIG    1       -1.856   1.351  -0.045  0.00  0.00    +0.091 C 
ATOM     15  C   LIG    1       -0.311   1.266  -0.183  0.00  0.00    +0.127 C 
ATOM     16  N   LIG    1        0.249  -0.038  -0.577  0.00  0.00    -0.325 N 
ATOM     17  C   LIG    1       -0.484  -0.623  -1.706  0.00  0.00    +0.105 C 
ATOM     18  C   LIG    1       -1.960  -0.843  -1.345  0.00  0.00    +0.021 C 
ATOM     19  C   LIG    1       -2.662   0.482  -1.036  0.00  0.00    +0.025 C 
BRANCH  14  21
ATOM     20  C   LIG    1       -3.519   3.076   0.675  0.00  0.00    +0.289 C 
ATOM     21  N   LIG    1       -2.340   2.721   0.138  0.00  0.00    -0.300 N 
ATOM     22  H   LIG    1       -1.676   3.455  -0.064  0.00  0.00    +0.150 HD
ATOM     23  O   LIG    1       -4.388   2.299   1.071  0.00  0.00    -0.261 OA
BRANCH  20  26
ATOM     24  C   LIG    1       -4.121   7.171   0.801  0.00  0.00    +0.106 C 
ATOM     25  C   LIG    1       -3.872   5.723   0.768  0.00  0.00    -0.096 C 
ATOM     26  C   LIG    1       -3.666   4.519   0.728  0.00  0.00    -0.008 C 
ENDBRANCH  20  26
ENDBRANCH  14  21
ENDBRANCH   1  16
BRANCH   5  27
ATOM     27  C   LIG    1        5.999  -0.394  -0.077  0.00  0.00    +0.244 C 
ATOM     28  O   LIG    1        6.538  -0.964   0.870  0.00  0.00    -0.270 OA
ATOM     29  N   LIG    1        6.725   0.209  -1.026  0.00  0.00    -0.325 N 
ATOM     30  H   LIG    1        7.733   0.195  -0.975  0.00  0.00    +0.145 HD
ATOM     31  H   LIG    1        6.273   0.679  -1.796  0.00  0.00    +0.145 HD
ENDBRANCH   5  27
TORSDOF 4
