REMARK  Name = DB15575
REMARK                            x       y       z     vdW  Elec       q    Type
REMARK                         _______ _______ _______ _____ _____    ______ ____
ROOT
ATOM      1  C   LIG    1       -5.871  -1.944  -0.170  0.00  0.00    +0.046 C 
ATOM      2  C   LIG    1       -4.705  -1.000   0.023  0.00  0.00    +0.047 C 
ATOM      3  N   LIG    1       -5.082   0.296  -0.024  0.00  0.00    -0.256 NA
ATOM      4  C   LIG    1       -6.432   0.360  -0.120  0.00  0.00    +0.047 C 
ATOM      5  C   LIG    1       -7.178   1.534  -0.226  0.00  0.00    +0.050 C 
ATOM      6  C   LIG    1       -6.689   2.866  -0.209  0.00  0.00    +0.052 A 
ATOM      7  N   LIG    1       -5.358   3.179  -0.068  0.00  0.00    -0.354 N 
ATOM      8  H   LIG    1       -4.604   2.549  -0.009  0.00  0.00    +0.166 HD
ATOM      9  C   LIG    1       -5.296   4.548  -0.026  0.00  0.00    +0.045 A 
ATOM     10  C   LIG    1       -4.116   5.301   0.163  0.00  0.00    +0.049 C 
ATOM     11  C   LIG    1       -2.814   4.821   0.284  0.00  0.00    +0.047 C 
ATOM     12  C   LIG    1       -1.662   5.757   0.523  0.00  0.00    +0.044 C 
ATOM     13  C   LIG    1       -1.506   6.166   2.003  0.00  0.00    +0.014 C 
ATOM     14  C   LIG    1       -0.511   4.928  -0.006  0.00  0.00    +0.047 C 
ATOM     15  C   LIG    1       -1.027   3.501   0.182  0.00  0.00    +0.051 C 
ATOM     16  C   LIG    1       -0.224   2.335   0.266  0.00  0.00    +0.009 C 
ATOM     17  C   LIG    1       -0.754   0.991   0.414  0.00  0.00    +0.058 A 
ATOM     18  C   LIG    1       -0.078  -0.209   0.650  0.00  0.00    +0.065 A 
ATOM     19  C   LIG    1       -1.014  -1.255   0.601  0.00  0.00    -0.013 A 
ATOM     20  C   LIG    1       -0.758  -2.751   0.785  0.00  0.00    +0.047 C 
ATOM     21  C   LIG    1       -2.226  -0.671   0.369  0.00  0.00    +0.045 A 
ATOM     22  N   LIG    1       -2.100   0.698   0.295  0.00  0.00    -0.354 N 
ATOM     23  H   LIG    1       -2.832   1.347   0.180  0.00  0.00    +0.166 HD
ATOM     24  N   LIG    1       -2.389   3.532   0.228  0.00  0.00    -0.256 NA
ATOM     25  C   LIG    1       -6.543   5.103  -0.193  0.00  0.00    -0.015 A 
ATOM     26  C   LIG    1       -6.858   6.591  -0.278  0.00  0.00    +0.046 C 
ATOM     27  C   LIG    1       -7.441   4.024  -0.283  0.00  0.00    +0.045 A 
ATOM     28  C   LIG    1       -3.403  -1.446   0.229  0.00  0.00    +0.049 C 
ATOM     29  C   LIG    1       -7.070  -1.010  -0.075  0.00  0.00    +0.044 C 
ATOM     30  C   LIG    1       -7.930  -1.253   1.181  0.00  0.00    +0.014 C 
ENDROOT
BRANCH  18  31
ATOM     31  C   LIG    1        1.316  -0.456   0.916  0.00  0.00    +0.246 C 
ATOM     32  O   LIG    1        1.851  -0.093   1.964  0.00  0.00    -0.270 OA
ATOM     33  N   LIG    1        1.938  -1.119  -0.074  0.00  0.00    -0.310 N 
ATOM     34  H   LIG    1        1.407  -1.364  -0.898  0.00  0.00    +0.149 HD
BRANCH  33  35
ATOM     35  C   LIG    1        3.349  -1.484  -0.069  0.00  0.00    +0.129 C 
BRANCH  35  36
ATOM     36  C   LIG    1        3.718  -2.271  -1.334  0.00  0.00    +0.216 C 
BRANCH  36  37
ATOM     37  S   LIG    1        5.550  -2.740  -1.335  0.00  0.00    +0.081 S 
ATOM     38  O   LIG    1        6.358  -1.562  -1.002  0.00  0.00    -0.147 OA
ATOM     39  O   LIG    1        5.838  -3.549  -2.523  0.00  0.00    -0.147 OA
BRANCH  37  40
ATOM     40  O   LIG    1        5.535  -3.748  -0.015  0.00  0.00    -0.254 OA
ATOM     41  H   LIG    1        5.463  -3.233   0.812  0.00  0.00    +0.244 HD
ENDBRANCH  37  40
ENDBRANCH  36  37
ENDBRANCH  35  36
ENDBRANCH  33  35
ENDBRANCH  18  31
BRANCH  27  42
ATOM     42  C   LIG    1       -8.901   4.123  -0.459  0.00  0.00    +0.162 C 
ATOM     43  O   LIG    1       -9.566   3.278  -1.057  0.00  0.00    -0.292 OA
ATOM     44  C   LIG    1       -9.655   5.241   0.262  0.00  0.00    +0.091 C 
ENDBRANCH  27  42
BRANCH   1  45
ATOM     45  C   LIG    1       -5.802  -2.753  -1.488  0.00  0.00    +0.007 C 
ATOM     46  C   LIG    1       -6.912  -3.807  -1.631  0.00  0.00    +0.004 C 
ENDBRANCH   1  45
BRANCH  14  47
ATOM     47  C   LIG    1       -0.139   5.253  -1.481  0.00  0.00    +0.021 C 
BRANCH  47  48
ATOM     48  C   LIG    1        0.533   6.627  -1.726  0.00  0.00    +0.121 C 
BRANCH  48  49
ATOM     49  C   LIG    1        1.858   6.830  -0.981  0.00  0.00    +0.305 C 
ATOM     50  O   LIG    1        2.048   7.750  -0.189  0.00  0.00    -0.251 OA
BRANCH  49  51
ATOM     51  O   LIG    1        2.784   5.885  -1.317  0.00  0.00    -0.481 OA
ATOM     52  H   LIG    1        3.613   6.005  -0.850  0.00  0.00    +0.295 HD
ENDBRANCH  49  51
ENDBRANCH  48  49
ENDBRANCH  47  48
ENDBRANCH  14  47
BRANCH  16  53
ATOM     53  C   LIG    1        1.303   2.565   0.161  0.00  0.00    +0.159 C 
BRANCH  53  54
ATOM     54  C   LIG    1        1.937   2.084  -1.162  0.00  0.00    +0.311 C 
ATOM     55  O   LIG    1        3.163   2.036  -1.273  0.00  0.00    -0.250 OA
BRANCH  54  56
ATOM     56  O   LIG    1        1.050   1.744  -2.128  0.00  0.00    -0.468 OA
ATOM     57  C   LIG    1        1.501   1.266  -3.386  0.00  0.00    +0.280 C 
ENDBRANCH  54  56
ENDBRANCH  53  54
ENDBRANCH  16  53
TORSDOF 14
