REMARK  Name = DB15157
REMARK                            x       y       z     vdW  Elec       q    Type
REMARK                         _______ _______ _______ _____ _____    ______ ____
ROOT
ATOM      1  C   LIG    1        1.536  -0.062   0.041  0.00  0.00    +0.039 A 
ATOM      2  C   LIG    1        2.303  -1.239   0.073  0.00  0.00    +0.150 A 
ATOM      3  O   LIG    1        1.594  -2.425   0.108  0.00  0.00    -0.454 OA
ATOM      4  C   LIG    1        2.265  -3.599   0.074  0.00  0.00    +0.141 A 
ATOM      5  C   LIG    1        3.606  -3.708   0.045  0.00  0.00    +0.098 A 
ATOM      6  C   LIG    1        4.469  -2.531   0.062  0.00  0.00    +0.197 A 
ATOM      7  O   LIG    1        5.696  -2.611   0.062  0.00  0.00    -0.287 OA
ATOM      8  C   LIG    1        3.714  -1.220   0.063  0.00  0.00    +0.106 A 
ATOM      9  C   LIG    1        4.352   0.036   0.043  0.00  0.00    +0.135 A 
ATOM     10  C   LIG    1        3.599   1.209   0.022  0.00  0.00    +0.092 A 
ATOM     11  C   LIG    1        2.208   1.169   0.017  0.00  0.00    +0.127 A 
ENDROOT
BRANCH   1  16
ATOM     12  C   LIG    1       -2.376  -2.612  -1.676  0.00  0.00    -0.096 C 
ATOM     13  N   LIG    1       -1.890  -1.444  -0.794  0.00  0.00    +0.382 N 
ATOM     14  H   LIG    1       -2.620  -0.748  -0.749  0.00  0.00    -0.082 HD
ATOM     15  C   LIG    1       -0.589  -0.765  -1.275  0.00  0.00    -0.035 C 
ATOM     16  C   LIG    1       -0.004  -0.131   0.015  0.00  0.00    +0.013 C 
ATOM     17  C   LIG    1       -0.657  -0.837   1.218  0.00  0.00    -0.012 C 
ATOM     18  C   LIG    1       -1.587  -1.902   0.642  0.00  0.00    -0.078 C 
BRANCH  15  19
ATOM     19  C   LIG    1       -0.700   0.246  -2.439  0.00  0.00    +0.141 C 
BRANCH  19  20
ATOM     20  O   LIG    1       -1.090  -0.380  -3.644  0.00  0.00    -0.397 OA
ATOM     21  H   LIG    1       -1.121   0.283  -4.338  0.00  0.00    +0.209 HD
ENDBRANCH  19  20
ENDBRANCH  15  19
ENDBRANCH   1  16
BRANCH   4  22
ATOM     22  C   LIG    1        1.318  -4.721   0.029  0.00  0.00    +0.036 A 
ATOM     23  C   LIG    1        0.837  -5.229  -1.187  0.00  0.00    +0.052 A 
ATOM     24 CL   LIG    1        1.357  -4.578  -2.704  0.00  0.00    -0.083 Cl
ATOM     25  C   LIG    1       -0.095  -6.268  -1.189  0.00  0.00    +0.033 A 
ATOM     26  C   LIG    1       -0.570  -6.807   0.011  0.00  0.00    +0.056 A 
ATOM     27  C   LIG    1       -0.092  -6.293   1.222  0.00  0.00    +0.013 A 
ATOM     28  C   LIG    1        0.841  -5.257   1.229  0.00  0.00    +0.013 A 
BRANCH  26  29
ATOM     29  C   LIG    1       -1.600  -7.934  -0.025  0.00  0.00    +0.417 C 
ATOM     30  F   LIG    1       -1.957  -8.339   1.195  0.00  0.00    -0.166 F 
ATOM     31  F   LIG    1       -1.096  -8.981  -0.680  0.00  0.00    -0.166 F 
ATOM     32  F   LIG    1       -2.696  -7.516  -0.660  0.00  0.00    -0.166 F 
ENDBRANCH  26  29
ENDBRANCH   4  22
BRANCH   9  33
ATOM     33  O   LIG    1        5.718   0.174   0.038  0.00  0.00    -0.506 OA
ATOM     34  H   LIG    1        6.003   1.090   0.023  0.00  0.00    +0.292 HD
ENDBRANCH   9  33
BRANCH  11  35
ATOM     35  O   LIG    1        1.530   2.360  -0.017  0.00  0.00    -0.506 OA
ATOM     36  H   LIG    1        2.116   3.120  -0.020  0.00  0.00    +0.292 HD
ENDBRANCH  11  35
TORSDOF 7
