REMARK  Name = DB15819
REMARK                            x       y       z     vdW  Elec       q    Type
REMARK                         _______ _______ _______ _____ _____    ______ ____
ROOT
ATOM      1  CA  ASP A  1        1.557  -0.009  -0.061  0.00  0.00    +0.171 C 
ENDROOT
BRANCH   1   2
ATOM      2  N   ASP A  1        2.195   0.698  -1.194  0.00  0.00    -0.318 NA
ATOM      3  H1  ASP A  1        1.838   0.331  -2.065  0.00  0.00    +0.119 HD
ATOM      4  H2  ASP A  1        3.185   0.501  -1.204  0.00  0.00    +0.119 HD
ENDBRANCH   1   2
BRANCH   1   5
ATOM      5  C   ASP A  1        2.022  -1.508   0.025  0.00  0.00    +0.322 C 
ATOM      6  OXT ASP A  1        2.374  -1.878   1.169  0.00  0.00    -0.249 OA
BRANCH   5   7
ATOM      7  O   ASP A  1        1.926  -2.183  -1.029  0.00  0.00    -0.480 OA
ATOM      8  H   ASP A  1        2.189  -3.082  -1.035  0.00  0.00    +0.295 HD
ENDBRANCH   5   7
ENDBRANCH   1   5
BRANCH   1   9
ATOM      9  CB  ASP A  1       -0.001   0.080  -0.099  0.00  0.00    +0.150 C 
BRANCH   9  10
ATOM     10  CG  ASP A  1       -0.632   1.481   0.060  0.00  0.00    +0.307 C 
ATOM     11  OD2 ASP A  1       -1.849   1.574  -0.217  0.00  0.00    -0.251 OA
BRANCH  10  12
ATOM     12  OD1 ASP A  1        0.049   2.404   0.564  0.00  0.00    -0.481 OA
ATOM     13  HD1 ASP A  1        0.174   3.204   0.092  0.00  0.00    +0.295 HD
ENDBRANCH  10  12
ENDBRANCH   9  10
ENDBRANCH   1   9
TORSDOF 6
