REMARK  Name = DB15407
REMARK                            x       y       z     vdW  Elec       q    Type
REMARK                         _______ _______ _______ _____ _____    ______ ____
ROOT
ATOM      1  C   LIG    1       -0.490  -0.806  -1.094  0.00  0.00    +0.138 A 
ATOM      2  N   LIG    1       -0.784  -2.173  -1.001  0.00  0.00    -0.263 N 
ATOM      3  C   LIG    1       -1.191  -2.963  -2.068  0.00  0.00    +0.266 A 
ATOM      4  O   LIG    1       -1.461  -4.167  -1.984  0.00  0.00    -0.267 OA
ATOM      5  C   LIG    1       -1.261  -2.204  -3.379  0.00  0.00    +0.068 A 
ATOM      6  C   LIG    1       -1.649  -2.844  -4.563  0.00  0.00    +0.053 A 
ATOM      7  C   LIG    1       -1.693  -2.118  -5.755  0.00  0.00    +0.124 A 
ATOM      8  C   LIG    1       -1.353  -0.763  -5.766  0.00  0.00    +0.040 A 
ATOM      9  C   LIG    1       -0.967  -0.125  -4.585  0.00  0.00    +0.031 A 
ATOM     10  F   LIG    1       -2.067  -2.728  -6.902  0.00  0.00    -0.205 F 
ATOM     11  C   LIG    1       -0.921  -0.847  -3.391  0.00  0.00    +0.078 A 
ATOM     12  N   LIG    1       -0.541  -0.181  -2.222  0.00  0.00    -0.231 NA
ENDROOT
BRANCH   2  13
ATOM     13  C   LIG    1       -0.616  -2.856   0.230  0.00  0.00    +0.051 A 
ATOM     14  C   LIG    1       -1.730  -3.151   1.026  0.00  0.00    +0.026 A 
ATOM     15  C   LIG    1       -1.555  -3.793   2.248  0.00  0.00    +0.002 A 
ATOM     16  C   LIG    1       -0.272  -4.136   2.672  0.00  0.00    +0.000 A 
ATOM     17  C   LIG    1        0.840  -3.845   1.885  0.00  0.00    +0.002 A 
ATOM     18  C   LIG    1        0.671  -3.206   0.660  0.00  0.00    +0.026 A 
ENDBRANCH   2  13
BRANCH   1  20
ATOM     19  C   LIG    1       -0.848   1.353   0.274  0.00  0.00    +0.036 C 
ATOM     20  C   LIG    1       -0.109   0.000   0.172  0.00  0.00    +0.135 C 
BRANCH  20  21
ATOM     21  N   LIG    1        1.342   0.178   0.107  0.00  0.00    -0.318 N 
ATOM     22  H   LIG    1        1.754   0.402  -0.787  0.00  0.00    +0.148 HD
BRANCH  21  23
ATOM     23  C   LIG    1        2.174   0.089   1.236  0.00  0.00    +0.150 A 
ATOM     24  C   LIG    1        3.563   0.268   1.098  0.00  0.00    +0.147 A 
ATOM     25  N   LIG    1        4.362   0.546   0.016  0.00  0.00    -0.231 NA
ATOM     26  C   LIG    1        5.573   0.591   0.518  0.00  0.00    +0.198 A 
ATOM     27  N   LIG    1        5.628   0.357   1.873  0.00  0.00    -0.329 N 
ATOM     28  H   LIG    1        6.481   0.354   2.415  0.00  0.00    +0.168 HD
ATOM     29  C   LIG    1        4.334   0.143   2.280  0.00  0.00    +0.163 A 
ATOM     30  N   LIG    1        3.861  -0.129   3.501  0.00  0.00    -0.216 NA
ATOM     31  C   LIG    1        2.508  -0.279   3.514  0.00  0.00    +0.225 A 
ATOM     32  N   LIG    1        1.647  -0.186   2.466  0.00  0.00    -0.219 NA
ENDBRANCH  21  23
ENDBRANCH  20  21
ENDBRANCH   1  20
TORSDOF 4
