REMARK  Name = DB15204
REMARK                            x       y       z     vdW  Elec       q    Type
REMARK                         _______ _______ _______ _____ _____    ______ ____
ROOT
ATOM      1  C   LIG    1        1.626   0.008   0.135  0.00  0.00    +0.127 C 
ENDROOT
BRANCH   1   2
ATOM      2  C   LIG    1        2.128   0.663   1.463  0.00  0.00    +0.022 A 
ATOM      3  C   LIG    1        2.219  -0.034   2.688  0.00  0.00    +0.132 A 
ATOM      4  F   LIG    1        1.863  -1.332   2.803  0.00  0.00    -0.205 F 
ATOM      5  C   LIG    1        2.647   0.613   3.848  0.00  0.00    +0.077 A 
ATOM      6  C   LIG    1        2.976   1.964   3.825  0.00  0.00    +0.126 A 
ATOM      7  F   LIG    1        3.382   2.584   4.956  0.00  0.00    -0.205 F 
ATOM      8  C   LIG    1        2.869   2.678   2.637  0.00  0.00    +0.039 A 
ATOM      9  C   LIG    1        2.443   2.036   1.477  0.00  0.00    +0.012 A 
ENDBRANCH   1   2
BRANCH   1  11
ATOM     10  C   LIG    1       -0.688  -0.834   1.065  0.00  0.00    +0.018 C 
ATOM     11  C   LIG    1        0.048   0.101   0.071  0.00  0.00    +0.080 C 
BRANCH  11  12
ATOM     12  C   LIG    1       -0.483   1.542   0.136  0.00  0.00    +0.085 A 
ATOM     13  S   LIG    1       -1.303   2.259   1.496  0.00  0.00    -0.080 S 
ATOM     14  C   LIG    1       -1.410   3.743   0.606  0.00  0.00    +0.075 A 
ATOM     15  C   LIG    1       -0.820   3.594  -0.650  0.00  0.00    +0.078 A 
ATOM     16  N   LIG    1       -0.344   2.378  -0.868  0.00  0.00    -0.244 NA
BRANCH  15  17
ATOM     17  C   LIG    1       -0.693   4.658  -1.704  0.00  0.00    +0.001 A 
ATOM     18  C   LIG    1        0.174   4.494  -2.795  0.00  0.00    +0.011 A 
ATOM     19  C   LIG    1        0.289   5.487  -3.763  0.00  0.00    +0.019 A 
ATOM     20  C   LIG    1       -0.464   6.657  -3.651  0.00  0.00    +0.052 A 
ATOM     21  C   LIG    1       -1.331   6.832  -2.572  0.00  0.00    +0.019 A 
ATOM     22  C   LIG    1       -1.443   5.837  -1.605  0.00  0.00    +0.011 A 
BRANCH  20  23
ATOM     23  C   LIG    1       -0.344   7.696  -4.663  0.00  0.00    +0.099 C 
ATOM     24  N   LIG    1       -0.249   8.523  -5.467  0.00  0.00    -0.191 NA
ENDBRANCH  20  23
ENDBRANCH  15  17
ENDBRANCH  11  12
ENDBRANCH   1  11
BRANCH   1  25
ATOM     25  O   LIG    1        2.078   0.809  -0.985  0.00  0.00    -0.340 OA
BRANCH  25  26
ATOM     26  C   LIG    1        3.447   0.790  -1.419  0.00  0.00    +0.336 C 
BRANCH  26  27
ATOM     27  O   LIG    1        4.363   1.020  -0.370  0.00  0.00    -0.260 OA
BRANCH  27  28
ATOM     28  P   LIG    1        6.073   0.683  -0.576  0.00  0.00    +0.474 P 
ATOM     29  O   LIG    1        6.737   1.102   0.747  0.00  0.00    -0.227 OA
BRANCH  28  30
ATOM     30  O   LIG    1        6.529   1.535  -1.775  0.00  0.00    -0.303 OA
ATOM     31  H   LIG    1        6.081   1.229  -2.579  0.00  0.00    +0.222 HD
ENDBRANCH  28  30
BRANCH  28  32
ATOM     32  O   LIG    1        6.170  -0.831  -0.843  0.00  0.00    -0.303 OA
ATOM     33  H   LIG    1        5.737  -1.039  -1.686  0.00  0.00    +0.222 HD
ENDBRANCH  28  32
ENDBRANCH  27  28
ENDBRANCH  26  27
ENDBRANCH  25  26
ENDBRANCH   1  25
BRANCH   1  34
ATOM     34  C   LIG    1        2.137  -1.473  -0.087  0.00  0.00    +0.186 C 
BRANCH  34  35
ATOM     35  N   LIG    1        1.567  -2.154  -1.257  0.00  0.00    -0.249 N 
ATOM     36  N   LIG    1        1.655  -1.662  -2.498  0.00  0.00    -0.158 NA
ATOM     37  C   LIG    1        1.018  -2.580  -3.193  0.00  0.00    +0.244 A 
ATOM     38  N   LIG    1        0.530  -3.618  -2.531  0.00  0.00    -0.223 NA
ATOM     39  C   LIG    1        0.886  -3.341  -1.304  0.00  0.00    +0.219 A 
ENDBRANCH  34  35
ENDBRANCH   1  34
TORSDOF 13
