REMARK  Name = DB15617
REMARK                            x       y       z     vdW  Elec       q    Type
REMARK                         _______ _______ _______ _____ _____    ______ ____
ROOT
ATOM      1  O   LIG    1        2.343   0.448   1.491  0.00  0.00    -0.341 OA
ATOM      2  C   LIG    1        2.012   0.022   0.192  0.00  0.00    +0.282 C 
ATOM      3  C   LIG    1        2.496  -1.422  -0.040  0.00  0.00    +0.201 C 
ATOM      4  C   LIG    1        2.031  -2.376   1.087  0.00  0.00    +0.179 C 
ATOM      5  C   LIG    1        2.315  -1.775   2.483  0.00  0.00    +0.177 C 
ATOM      6  C   LIG    1        1.752  -0.337   2.538  0.00  0.00    +0.178 C 
ENDROOT
BRANCH   5   7
ATOM      7  O   LIG    1        1.774  -2.587   3.512  0.00  0.00    -0.386 OA
ATOM      8  H   LIG    1        2.124  -2.291   4.355  0.00  0.00    +0.210 HD
ENDBRANCH   5   7
BRANCH   4   9
ATOM      9  O   LIG    1        2.614  -3.662   0.943  0.00  0.00    -0.386 OA
ATOM     10  H   LIG    1        3.564  -3.582   1.047  0.00  0.00    +0.210 HD
ENDBRANCH   4   9
BRANCH   3  11
ATOM     11  O   LIG    1        2.155  -1.891  -1.333  0.00  0.00    -0.384 OA
ATOM     12  H   LIG    1        2.181  -2.851  -1.322  0.00  0.00    +0.210 HD
ENDBRANCH   3  11
BRANCH   2  13
ATOM     13  O   LIG    1        0.634   0.108  -0.044  0.00  0.00    -0.346 OA
BRANCH  13  14
ATOM     14  C   LIG    1        0.123   1.441  -0.077  0.00  0.00    +0.197 C 
BRANCH  14  15
ATOM     15  C   LIG    1       -1.385   1.453   0.250  0.00  0.00    +0.171 C 
BRANCH  15  16
ATOM     16  O   LIG    1       -1.541   1.047   1.599  0.00  0.00    -0.387 OA
ATOM     17  H   LIG    1       -2.479   1.010   1.800  0.00  0.00    +0.210 HD
ENDBRANCH  15  16
BRANCH  15  18
ATOM     18  C   LIG    1       -2.044   2.850   0.046  0.00  0.00    +0.176 C 
BRANCH  18  19
ATOM     19  O   LIG    1       -1.967   3.208  -1.325  0.00  0.00    -0.386 OA
ATOM     20  H   LIG    1       -2.434   2.547  -1.841  0.00  0.00    +0.210 HD
ENDBRANCH  18  19
BRANCH  18  21
ATOM     21  C   LIG    1       -3.510   2.992   0.567  0.00  0.00    +0.176 C 
BRANCH  21  22
ATOM     22  O   LIG    1       -4.303   1.944   0.026  0.00  0.00    -0.386 OA
ATOM     23  H   LIG    1       -4.364   2.066  -0.924  0.00  0.00    +0.210 HD
ENDBRANCH  21  22
BRANCH  21  24
ATOM     24  C   LIG    1       -4.200   4.359   0.275  0.00  0.00    +0.171 C 
BRANCH  24  25
ATOM     25  O   LIG    1       -5.484   4.363   0.884  0.00  0.00    -0.387 OA
ATOM     26  H   LIG    1       -5.957   3.578   0.599  0.00  0.00    +0.210 HD
ENDBRANCH  24  25
BRANCH  24  27
ATOM     27  C   LIG    1       -3.424   5.590   0.800  0.00  0.00    +0.189 C 
BRANCH  27  28
ATOM     28  O   LIG    1       -4.010   6.796   0.348  0.00  0.00    -0.392 OA
ATOM     29  H   LIG    1       -4.871   6.887   0.763  0.00  0.00    +0.210 HD
ENDBRANCH  27  28
ENDBRANCH  24  27
ENDBRANCH  21  24
ENDBRANCH  18  21
ENDBRANCH  15  18
ENDBRANCH  14  15
ENDBRANCH  13  14
ENDBRANCH   2  13
BRANCH   6  30
ATOM     30  C   LIG    1        1.995   0.412   3.861  0.00  0.00    +0.197 C 
BRANCH  30  31
ATOM     31  O   LIG    1        1.125   1.538   3.863  0.00  0.00    -0.346 OA
BRANCH  31  32
ATOM     32  C   LIG    1        1.502   2.616   4.669  0.00  0.00    +0.282 C 
ATOM     33  C   LIG    1        0.311   3.583   4.767  0.00  0.00    +0.201 C 
ATOM     34  C   LIG    1       -0.013   4.183   3.380  0.00  0.00    +0.179 C 
ATOM     35  C   LIG    1        1.250   4.805   2.749  0.00  0.00    +0.177 C 
ATOM     36  C   LIG    1        2.454   3.826   2.832  0.00  0.00    +0.178 C 
ATOM     37  O   LIG    1        2.625   3.292   4.156  0.00  0.00    -0.341 OA
BRANCH  35  38
ATOM     38  O   LIG    1        1.007   5.210   1.412  0.00  0.00    -0.386 OA
ATOM     39  H   LIG    1        0.683   4.453   0.918  0.00  0.00    +0.210 HD
ENDBRANCH  35  38
BRANCH  34  40
ATOM     40  O   LIG    1       -1.079   5.116   3.450  0.00  0.00    -0.386 OA
ATOM     41  H   LIG    1       -0.800   5.856   3.994  0.00  0.00    +0.210 HD
ENDBRANCH  34  40
BRANCH  33  42
ATOM     42  O   LIG    1       -0.810   2.966   5.376  0.00  0.00    -0.384 OA
ATOM     43  H   LIG    1       -1.596   3.463   5.135  0.00  0.00    +0.210 HD
ENDBRANCH  33  42
BRANCH  36  44
ATOM     44  C   LIG    1        3.798   4.434   2.374  0.00  0.00    +0.190 C 
BRANCH  44  45
ATOM     45  O   LIG    1        4.170   5.554   3.154  0.00  0.00    -0.392 OA
ATOM     46  H   LIG    1        5.003   5.897   2.820  0.00  0.00    +0.210 HD
ENDBRANCH  44  45
ENDBRANCH  36  44
ENDBRANCH  31  32
ENDBRANCH  30  31
ENDBRANCH   6  30
TORSDOF 23
