REMARK  Name = DB15413
REMARK                            x       y       z     vdW  Elec       q    Type
REMARK                         _______ _______ _______ _____ _____    ______ ____
ROOT
ATOM      1  C   LIG    1        1.474  -0.150   0.059  0.00  0.00    +0.135 C 
ATOM      2  C   LIG    1        2.032  -0.132  -1.187  0.00  0.00    -0.005 C 
ATOM      3  C   LIG    1        3.560  -0.123  -1.343  0.00  0.00    +0.039 C 
ATOM      4  C   LIG    1        4.272  -0.679  -0.096  0.00  0.00    +0.009 C 
ATOM      5  C   LIG    1        3.772  -0.011   1.194  0.00  0.00    +0.039 C 
ATOM      6  C   LIG    1        2.254  -0.188   1.308  0.00  0.00    -0.005 C 
ATOM      7  C   LIG    1        1.621  -0.372   2.494  0.00  0.00    +0.009 C 
ENDROOT
BRANCH   7   8
ATOM      8  C   LIG    1        2.235  -0.401   3.814  0.00  0.00    +0.020 C 
ATOM      9  C   LIG    1        1.580  -0.570   4.989  0.00  0.00    +0.021 C 
ATOM     10  N   LIG    1        2.196  -0.598   6.236  0.00  0.00    -0.302 N 
ATOM     11  C   LIG    1        1.304  -0.733   7.301  0.00  0.00    +0.038 A 
ATOM     12  C   LIG    1        1.527  -0.780   8.681  0.00  0.00    +0.025 A 
ATOM     13  C   LIG    1        0.445  -0.932   9.549  0.00  0.00    +0.031 A 
ATOM     14  C   LIG    1       -0.852  -1.045   9.038  0.00  0.00    +0.117 A 
ATOM     15  C   LIG    1       -1.064  -0.993   7.657  0.00  0.00    +0.036 A 
ATOM     16  C   LIG    1        0.023  -0.838   6.791  0.00  0.00    -0.013 A 
ATOM     17  C   LIG    1        0.071  -0.752   5.277  0.00  0.00    +0.030 C 
ATOM     18  C   LIG    1       -0.453  -2.077   4.674  0.00  0.00    +0.022 C 
ATOM     19  C   LIG    1       -0.742   0.482   4.815  0.00  0.00    +0.022 C 
BRANCH  14  20
ATOM     20  S   LIG    1       -2.242  -1.225  10.147  0.00  0.00    +0.110 S 
ATOM     21  O   LIG    1       -3.025   0.014  10.085  0.00  0.00    -0.142 OA
ATOM     22  O   LIG    1       -1.762  -1.782  11.417  0.00  0.00    -0.142 OA
BRANCH  20  23
ATOM     23  O   LIG    1       -3.065  -2.412   9.327  0.00  0.00    -0.250 OA
ATOM     24  H   LIG    1       -2.646  -3.283   9.466  0.00  0.00    +0.245 HD
ENDBRANCH  20  23
ENDBRANCH  14  20
BRANCH  10  25
ATOM     25  C   LIG    1        3.624  -0.405   6.494  0.00  0.00    +0.111 C 
BRANCH  25  26
ATOM     26  C   LIG    1        4.032   1.077   6.612  0.00  0.00    +0.021 C 
BRANCH  26  27
ATOM     27  C   LIG    1        5.551   1.307   6.705  0.00  0.00    +0.027 C 
BRANCH  27  28
ATOM     28  C   LIG    1        6.189   0.740   7.985  0.00  0.00    +0.198 C 
BRANCH  28  29
ATOM     29  S   LIG    1        8.027   1.178   8.036  0.00  0.00    +0.080 S 
ATOM     30  O   LIG    1        8.178   2.627   8.197  0.00  0.00    -0.147 OA
ATOM     31  O   LIG    1        8.728   0.451   6.972  0.00  0.00    -0.147 OA
BRANCH  29  32
ATOM     32  O   LIG    1        8.393   0.453   9.483  0.00  0.00    -0.254 OA
ATOM     33  H   LIG    1        8.429  -0.518   9.385  0.00  0.00    +0.244 HD
ENDBRANCH  29  32
ENDBRANCH  28  29
ENDBRANCH  27  28
ENDBRANCH  26  27
ENDBRANCH  25  26
ENDBRANCH  10  25
ENDBRANCH   7   8
BRANCH   2  34
ATOM     34  C   LIG    1        1.183  -0.090  -2.382  0.00  0.00    +0.009 C 
ATOM     35  C   LIG    1        1.603   0.167  -3.639  0.00  0.00    +0.022 C 
BRANCH  35  36
ATOM     36  C   LIG    1        0.801   0.236  -4.777  0.00  0.00    +0.029 C 
ATOM     37  N   LIG    1        1.304   0.405  -6.015  0.00  0.00    -0.343 N 
ATOM     38  C   LIG    1        0.260   0.522  -6.967  0.00  0.00    +0.046 A 
ATOM     39  C   LIG    1        0.337   0.744  -8.346  0.00  0.00    +0.028 A 
ATOM     40  C   LIG    1       -0.844   0.839  -9.083  0.00  0.00    +0.031 A 
ATOM     41  C   LIG    1       -2.087   0.716  -8.450  0.00  0.00    +0.117 A 
ATOM     42  C   LIG    1       -2.142   0.497  -7.067  0.00  0.00    +0.036 A 
ATOM     43  C   LIG    1       -0.958   0.403  -6.330  0.00  0.00    -0.011 A 
ATOM     44  C   LIG    1       -0.728   0.180  -4.857  0.00  0.00    +0.032 C 
ATOM     45  C   LIG    1       -1.376   1.324  -4.038  0.00  0.00    +0.022 C 
ATOM     46  C   LIG    1       -1.277  -1.210  -4.444  0.00  0.00    +0.022 C 
BRANCH  41  47
ATOM     47  S   LIG    1       -3.580   0.847  -9.436  0.00  0.00    +0.110 S 
ATOM     48  O   LIG    1       -3.409  -0.238 -10.409  0.00  0.00    -0.142 OA
ATOM     49  O   LIG    1       -3.471   2.201  -9.990  0.00  0.00    -0.142 OA
BRANCH  47  50
ATOM     50  O   LIG    1       -4.669   0.652  -8.473  0.00  0.00    -0.250 OA
ATOM     51  H   LIG    1       -4.709   1.413  -7.872  0.00  0.00    +0.245 HD
ENDBRANCH  47  50
ENDBRANCH  41  47
BRANCH  37  52
ATOM     52  C   LIG    1        2.748   0.515  -6.400  0.00  0.00    +0.122 C 
BRANCH  52  53
ATOM     53  C   LIG    1        3.214   1.980  -6.315  0.00  0.00    +0.023 C 
BRANCH  53  54
ATOM     54  C   LIG    1        4.658   2.164  -6.814  0.00  0.00    +0.027 C 
BRANCH  54  55
ATOM     55  C   LIG    1        5.130   3.629  -6.806  0.00  0.00    +0.198 C 
BRANCH  55  56
ATOM     56  S   LIG    1        4.558   4.567  -8.357  0.00  0.00    +0.080 S 
ATOM     57  O   LIG    1        4.935   5.979  -8.234  0.00  0.00    -0.147 OA
ATOM     58  O   LIG    1        3.189   4.180  -8.714  0.00  0.00    -0.147 OA
BRANCH  56  59
ATOM     59  O   LIG    1        5.594   3.857  -9.442  0.00  0.00    -0.254 OA
ATOM     60  H   LIG    1        6.508   4.171  -9.300  0.00  0.00    +0.244 HD
ENDBRANCH  56  59
ENDBRANCH  55  56
ENDBRANCH  54  55
ENDBRANCH  53  54
ENDBRANCH  52  53
ENDBRANCH  37  52
ENDBRANCH  35  36
ENDBRANCH   2  34
BRANCH   1  61
ATOM     61  O   LIG    1        0.116  -0.159   0.173  0.00  0.00    -0.455 OA
BRANCH  61  65
ATOM     62  C   LIG    1       -2.165   3.298  -0.353  0.00  0.00    -0.045 A 
ATOM     63  C   LIG    1       -0.818   3.429  -0.006  0.00  0.00    +0.007 A 
ATOM     64  C   LIG    1       -0.039   2.294   0.193  0.00  0.00    +0.046 A 
ATOM     65  C   LIG    1       -0.602   1.017   0.043  0.00  0.00    +0.128 A 
ATOM     66  C   LIG    1       -1.958   0.896  -0.261  0.00  0.00    +0.046 A 
ATOM     67  C   LIG    1       -2.737   2.030  -0.464  0.00  0.00    +0.007 A 
BRANCH  62  68
ATOM     68  C   LIG    1       -3.010   4.538  -0.625  0.00  0.00    +0.069 C 
BRANCH  68  69
ATOM     69  CA  LIG    1       -3.036   4.905  -2.134  0.00  0.00    +0.186 C 
BRANCH  69  72
ATOM     70  C   LIG    1       -1.306   5.140  -3.943  0.00  0.00    +0.245 C 
ATOM     71  O   LIG    1       -2.077   4.834  -4.855  0.00  0.00    -0.270 OA
ATOM     72  N   LIG    1       -1.688   5.180  -2.652  0.00  0.00    -0.298 N 
ATOM     73  H   LIG    1       -1.007   5.444  -1.956  0.00  0.00    +0.150 HD
BRANCH  70  77
ATOM     74  C   LIG    1        2.787   6.247  -4.820  0.00  0.00    +0.027 A 
ATOM     75  C   LIG    1        2.363   6.138  -3.491  0.00  0.00    +0.023 A 
ATOM     76  C   LIG    1        1.053   5.770  -3.201  0.00  0.00    +0.015 A 
ATOM     77  C   LIG    1        0.138   5.503  -4.233  0.00  0.00    +0.037 A 
ATOM     78  C   LIG    1        0.580   5.592  -5.560  0.00  0.00    +0.015 A 
ATOM     79  C   LIG    1        1.890   5.963  -5.849  0.00  0.00    +0.023 A 
BRANCH  74  80
ATOM     80  N   LIG    1        4.088   6.640  -5.175  0.00  0.00    -0.338 N 
ATOM     81  H   LIG    1        4.292   6.820  -6.149  0.00  0.00    +0.146 HD
BRANCH  80  82
ATOM     82  C   LIG    1        5.079   7.044  -4.181  0.00  0.00    +0.158 C 
BRANCH  82  93
ATOM     83  C   LIG    1        8.109   6.853  -6.335  0.00  0.00    +0.172 A 
ATOM     84  C   LIG    1        8.633   6.056  -7.514  0.00  0.00    +0.280 A 
ATOM     85  O   LIG    1        8.041   5.150  -8.098  0.00  0.00    -0.265 OA
ATOM     86  N   LIG    1        9.883   6.459  -7.883  0.00  0.00    -0.293 N 
ATOM     87  H   LIG    1       10.278   5.958  -8.665  0.00  0.00    +0.172 HD
ATOM     88  C   LIG    1       10.645   7.453  -7.315  0.00  0.00    +0.195 A 
ATOM     89  N   LIG    1       10.202   8.130  -6.314  0.00  0.00    -0.195 NA
ATOM     90  C   LIG    1        8.924   7.859  -5.788  0.00  0.00    +0.187 A 
ATOM     91  N   LIG    1        8.505   8.603  -4.731  0.00  0.00    -0.232 NA
ATOM     92  C   LIG    1        7.267   8.335  -4.236  0.00  0.00    +0.138 A 
ATOM     93  C   LIG    1        6.447   7.342  -4.789  0.00  0.00    +0.077 A 
ATOM     94  N   LIG    1        6.873   6.579  -5.839  0.00  0.00    -0.240 NA
BRANCH  88  95
ATOM     95  N   LIG    1       11.925   7.706  -7.856  0.00  0.00    -0.329 N 
ATOM     96  H   LIG    1       12.203   7.328  -8.750  0.00  0.00    +0.145 HD
ATOM     97  H   LIG    1       12.479   8.488  -7.540  0.00  0.00    +0.145 HD
ENDBRANCH  88  95
ENDBRANCH  82  93
ENDBRANCH  80  82
ENDBRANCH  74  80
ENDBRANCH  70  77
ENDBRANCH  69  72
BRANCH  69  98
ATOM     98  C   LIG    1       -4.007   6.078  -2.403  0.00  0.00    +0.326 C 
ATOM     99  O   LIG    1       -3.664   7.202  -2.712  0.00  0.00    -0.249 OA
BRANCH  98 100
ATOM    100  OXT LIG    1       -5.295   5.650  -2.249  0.00  0.00    -0.479 OA
ATOM    101  HXT LIG    1       -5.932   6.346  -2.423  0.00  0.00    +0.295 HD
ENDBRANCH  98 100
ENDBRANCH  69  98
ENDBRANCH  68  69
ENDBRANCH  62  68
ENDBRANCH  61  65
ENDBRANCH   1  61
TORSDOF 31
