REMARK  Name = DB15458
REMARK                            x       y       z     vdW  Elec       q    Type
REMARK                         _______ _______ _______ _____ _____    ______ ____
ROOT
ATOM      1  CA  LIG    1        2.017  -1.504  -0.109  0.00  0.00    +0.036 C 
ENDROOT
BRANCH   1   2
ATOM      2  N   LIG    1        3.537  -1.405   0.115  0.00  0.00    +0.387 N 
ATOM      3  H1  LIG    1        3.971  -0.931  -0.665  0.00  0.00    -0.089 HD
ATOM      4  H2  LIG    1        3.726  -0.882   0.957  0.00  0.00    -0.089 HD
ATOM      5  H3  LIG    1        3.936  -2.328   0.211  0.00  0.00    -0.089 HD
ENDBRANCH   1   2
BRANCH   1   6
ATOM      6  C   LIG    1        1.765  -2.329  -1.402  0.00  0.00    +0.290 C 
ATOM      7  OXT LIG    1        0.644  -2.876  -1.494  0.00  0.00    -0.253 OA
BRANCH   6   8
ATOM      8  O   LIG    1        2.650  -2.402  -2.288  0.00  0.00    -0.482 OA
ATOM      9  H   LIG    1        2.493  -2.901  -3.066  0.00  0.00    +0.295 HD
ENDBRANCH   6   8
ENDBRANCH   1   6
BRANCH   1  10
ATOM     10  C   LIG    1        1.442  -0.066  -0.194  0.00  0.00    -0.005 C 
BRANCH  10  11
ATOM     11  C   LIG    1       -0.088   0.022  -0.024  0.00  0.00    -0.001 C 
BRANCH  11  13
ATOM     12  C   LIG    1       -2.126   1.562   0.179  0.00  0.00    +0.004 C 
ATOM     13  C   LIG    1       -0.603   1.472   0.021  0.00  0.00    -0.003 C 
ENDBRANCH  11  13
ENDBRANCH  10  11
ENDBRANCH   1  10
TORSDOF 6
