REMARK  Name = DB15035
REMARK                            x       y       z     vdW  Elec       q    Type
REMARK                         _______ _______ _______ _____ _____    ______ ____
ROOT
ATOM      1  C   LIG    1        1.721  -0.290  -0.251  0.00  0.00    +0.107 A 
ATOM      2  N   LIG    1        2.394   0.689   0.319  0.00  0.00    -0.168 NA
ATOM      3  N   LIG    1        3.695   0.482   0.074  0.00  0.00    -0.246 N 
ATOM      4  C   LIG    1        4.744   1.326   0.680  0.00  0.00    +0.114 C 
ATOM      5  C   LIG    1        6.112   0.901   0.079  0.00  0.00    +0.046 C 
ATOM      6  C   LIG    1        6.240  -0.625  -0.081  0.00  0.00    +0.105 C 
ATOM      7  N   LIG    1        5.162  -1.114  -0.938  0.00  0.00    -0.329 N 
ATOM      8  H   LIG    1        5.416  -1.293  -1.899  0.00  0.00    +0.147 HD
ATOM      9  C   LIG    1        3.883  -0.720  -0.583  0.00  0.00    +0.130 A 
ATOM     10  C   LIG    1        2.609  -1.222  -0.849  0.00  0.00    +0.103 A 
ENDROOT
BRANCH   4  11
ATOM     11  C   LIG    1        4.465   2.855   0.601  0.00  0.00    +0.017 C 
ATOM     12  C   LIG    1        5.412   3.743   1.463  0.00  0.00    +0.024 C 
ATOM     13  C   LIG    1        5.370   5.259   1.154  0.00  0.00    +0.108 C 
ATOM     14  N   LIG    1        5.413   5.410  -0.309  0.00  0.00    -0.298 N 
ATOM     15  C   LIG    1        6.607   5.584  -0.949  0.00  0.00    +0.239 C 
ATOM     16  O   LIG    1        7.648   5.808  -0.321  0.00  0.00    -0.271 OA
ATOM     17  C   LIG    1        4.160   4.955  -0.932  0.00  0.00    +0.108 C 
ATOM     18  C   LIG    1        4.121   3.415  -0.815  0.00  0.00    +0.024 C 
BRANCH  15  19
ATOM     19  C   LIG    1        6.619   5.519  -2.402  0.00  0.00    +0.060 C 
ATOM     20  C   LIG    1        7.696   5.861  -3.136  0.00  0.00    +0.013 C 
ENDBRANCH  15  19
ENDBRANCH   4  11
BRANCH   1  23
ATOM     21  C   LIG    1       -1.872   0.939  -0.038  0.00  0.00    +0.047 A 
ATOM     22  C   LIG    1       -0.482   0.925  -0.116  0.00  0.00    +0.014 A 
ATOM     23  C   LIG    1        0.218  -0.288  -0.172  0.00  0.00    +0.003 A 
ATOM     24  C   LIG    1       -0.504  -1.486  -0.125  0.00  0.00    +0.014 A 
ATOM     25  C   LIG    1       -1.894  -1.474  -0.045  0.00  0.00    +0.047 A 
ATOM     26  C   LIG    1       -2.586  -0.258  -0.019  0.00  0.00    +0.128 A 
BRANCH  26  27
ATOM     27  O   LIG    1       -3.960  -0.186   0.083  0.00  0.00    -0.456 OA
BRANCH  27  28
ATOM     28  C   LIG    1       -4.773  -1.113  -0.535  0.00  0.00    +0.128 A 
ATOM     29  C   LIG    1       -4.564  -1.513  -1.861  0.00  0.00    +0.046 A 
ATOM     30  C   LIG    1       -5.424  -2.432  -2.455  0.00  0.00    +0.004 A 
ATOM     31  C   LIG    1       -6.497  -2.942  -1.728  0.00  0.00    +0.000 A 
ATOM     32  C   LIG    1       -6.720  -2.538  -0.413  0.00  0.00    +0.004 A 
ATOM     33  C   LIG    1       -5.859  -1.618   0.181  0.00  0.00    +0.046 A 
ENDBRANCH  27  28
ENDBRANCH  26  27
ENDBRANCH   1  23
BRANCH  10  34
ATOM     34  C   LIG    1        2.286  -2.370  -1.660  0.00  0.00    +0.247 C 
ATOM     35  O   LIG    1        1.383  -2.347  -2.494  0.00  0.00    -0.270 OA
ATOM     36  N   LIG    1        3.038  -3.450  -1.431  0.00  0.00    -0.325 N 
ATOM     37  H   LIG    1        3.771  -3.421  -0.737  0.00  0.00    +0.145 HD
ATOM     38  H   LIG    1        2.877  -4.300  -1.951  0.00  0.00    +0.145 HD
ENDBRANCH  10  34
TORSDOF 6
