REMARK  Name = DB15063
REMARK                            x       y       z     vdW  Elec       q    Type
REMARK                         _______ _______ _______ _____ _____    ______ ____
ROOT
ATOM      1  P   LIG    1        2.077  -0.090   0.263  0.00  0.00    +0.395 P 
ATOM      2  O   LIG    1        3.024   0.972   0.700  0.00  0.00    -0.246 OA
ENDROOT
BRANCH   1   3
ATOM      3  O   LIG    1        0.553   0.058   0.828  0.00  0.00    -0.291 OA
BRANCH   3   8
ATOM      4  C   LIG    1       -1.708   0.784   0.924  0.00  0.00    +0.199 C 
ATOM      5  C   LIG    1       -1.604   1.105   2.418  0.00  0.00    +0.255 C 
ATOM      6  O   LIG    1       -0.884   2.299   2.476  0.00  0.00    -0.346 OA
ATOM      7  C   LIG    1        0.057   2.372   1.404  0.00  0.00    +0.178 C 
ATOM      8  C   LIG    1       -0.289   1.163   0.514  0.00  0.00    +0.193 C 
BRANCH   5   9
ATOM      9  N   LIG    1       -2.810   1.178   3.235  0.00  0.00    -0.271 N 
ATOM     10  C   LIG    1       -3.781   2.112   2.917  0.00  0.00    +0.331 A 
ATOM     11  O   LIG    1       -3.725   2.941   2.008  0.00  0.00    -0.246 OA
ATOM     12  N   LIG    1       -4.883   2.066   3.735  0.00  0.00    -0.275 N 
ATOM     13  H   LIG    1       -5.603   2.741   3.521  0.00  0.00    +0.173 HD
ATOM     14  C   LIG    1       -5.155   1.251   4.798  0.00  0.00    +0.254 A 
ATOM     15  O   LIG    1       -6.195   1.322   5.447  0.00  0.00    -0.268 OA
ATOM     16  C   LIG    1       -4.090   0.303   5.067  0.00  0.00    +0.088 A 
ATOM     17  C   LIG    1       -2.990   0.309   4.290  0.00  0.00    +0.098 A 
ENDBRANCH   5   9
BRANCH   4  19
ATOM     18  C   LIG    1       -3.337  -0.990   0.804  0.00  0.00    +0.194 C 
ATOM     19  O   LIG    1       -1.987  -0.585   0.631  0.00  0.00    -0.373 OA
ENDBRANCH   4  19
BRANCH   7  20
ATOM     20  C   LIG    1       -0.100   3.729   0.691  0.00  0.00    +0.190 C 
BRANCH  20  21
ATOM     21  O   LIG    1        0.143   4.800   1.580  0.00  0.00    -0.392 OA
ATOM     22  H   LIG    1        0.029   5.626   1.103  0.00  0.00    +0.210 HD
ENDBRANCH  20  21
ENDBRANCH   7  20
ENDBRANCH   3   8
ENDBRANCH   1   3
BRANCH   1  23
ATOM     23  S   LIG    1        1.879  -0.260  -1.859  0.00  0.00    -0.000 S 
BRANCH  23  24
ATOM     24  C   LIG    1        0.552  -1.502  -1.975  0.00  0.00    +0.317 C 
BRANCH  24  25
ATOM     25  O   LIG    1        0.915  -2.734  -1.365  0.00  0.00    -0.422 OA
BRANCH  25  26
ATOM     26  C   LIG    1        1.713  -3.632  -1.972  0.00  0.00    +0.511 C 
ATOM     27  O   LIG    1        2.180  -3.545  -3.111  0.00  0.00    -0.203 OA
BRANCH  26  28
ATOM     28  O   LIG    1        1.917  -4.638  -1.095  0.00  0.00    -0.431 OA
BRANCH  28  29
ATOM     29  C   LIG    1        2.712  -5.778  -1.419  0.00  0.00    +0.174 C 
ATOM     30  C   LIG    1        3.167  -6.412  -0.096  0.00  0.00    +0.052 C 
ATOM     31  C   LIG    1        1.919  -6.773  -2.289  0.00  0.00    +0.052 C 
ENDBRANCH  28  29
ENDBRANCH  26  28
ENDBRANCH  25  26
ENDBRANCH  24  25
ENDBRANCH  23  24
ENDBRANCH   1  23
BRANCH   1  32
ATOM     32  O   LIG    1        2.478  -1.593   0.753  0.00  0.00    -0.297 OA
BRANCH  32  33
ATOM     33  C   LIG    1        2.431  -1.920   2.135  0.00  0.00    +0.205 C 
BRANCH  33  34
ATOM     34  C   LIG    1        1.689  -3.252   2.361  0.00  0.00    +0.175 C 
ATOM     35  C   LIG    1        0.253  -3.327   1.823  0.00  0.00    +0.150 C 
ATOM     36  C   LIG    1       -0.599  -2.903   3.001  0.00  0.00    +0.088 C 
ATOM     37  C   LIG    1        0.199  -3.481   4.161  0.00  0.00    +0.225 C 
ATOM     38  O   LIG    1        1.541  -3.434   3.768  0.00  0.00    -0.348 OA
BRANCH  37  39
ATOM     39  N   LIG    1       -0.001  -2.798   5.500  0.00  0.00    -0.288 N 
ATOM     40  C   LIG    1        0.210  -1.476   5.793  0.00  0.00    +0.167 A 
ATOM     41  N   LIG    1        0.581  -0.463   4.971  0.00  0.00    -0.216 NA
ATOM     42  C   LIG    1        0.639   0.709   5.622  0.00  0.00    +0.225 A 
ATOM     43  N   LIG    1        0.395   0.972   6.913  0.00  0.00    -0.219 NA
ATOM     44  C   LIG    1        0.043  -0.067   7.720  0.00  0.00    +0.147 A 
ATOM     45  C   LIG    1       -0.056  -1.357   7.146  0.00  0.00    +0.147 A 
ATOM     46  N   LIG    1       -0.365  -2.547   7.683  0.00  0.00    -0.231 NA
ATOM     47  C   LIG    1       -0.289  -3.385   6.679  0.00  0.00    +0.203 A 
BRANCH  44  48
ATOM     48  N   LIG    1       -0.203   0.187   9.068  0.00  0.00    -0.341 N 
ATOM     49  H   LIG    1       -0.113   1.130   9.416  0.00  0.00    +0.144 HD
ATOM     50  H   LIG    1       -0.455  -0.577   9.678  0.00  0.00    +0.144 HD
ENDBRANCH  44  48
ENDBRANCH  37  39
BRANCH  35  51
ATOM     51  O   LIG    1       -0.086  -4.622   1.360  0.00  0.00    -0.389 OA
ATOM     52  H   LIG    1        0.457  -4.823   0.593  0.00  0.00    +0.210 HD
ENDBRANCH  35  51
ENDBRANCH  33  34
ENDBRANCH  32  33
ENDBRANCH   1  32
TORSDOF 18
