REMARK  Name = DB15068
REMARK                            x       y       z     vdW  Elec       q    Type
REMARK                         _______ _______ _______ _____ _____    ______ ____
ROOT
ATOM      1  C   LIG    1        1.516   0.154  -0.985  0.00  0.00    +0.132 A 
ATOM      2  C   LIG    1        2.532   0.315  -1.930  0.00  0.00    +0.069 A 
ATOM      3  C   LIG    1        3.864   0.041  -1.601  0.00  0.00    +0.038 A 
ATOM      4  C   LIG    1        4.165  -0.418  -0.306  0.00  0.00    +0.023 A 
ATOM      5  C   LIG    1        3.148  -0.588   0.634  0.00  0.00    +0.005 A 
ATOM      6  C   LIG    1        1.826  -0.305   0.296  0.00  0.00    +0.046 A 
ENDROOT
BRANCH   3   7
ATOM      7  N   LIG    1        4.806   0.245  -2.628  0.00  0.00    -0.269 N 
ATOM      8  H   LIG    1        4.396   0.493  -3.517  0.00  0.00    +0.156 HD
ATOM      9  C   LIG    1        6.153   0.186  -2.590  0.00  0.00    +0.309 C 
ATOM     10  N   LIG    1        6.656   0.444  -3.816  0.00  0.00    -0.251 N 
ATOM     11  H   LIG    1        5.997   0.636  -4.556  0.00  0.00    +0.158 HD
ATOM     12  O   LIG    1        6.829  -0.056  -1.589  0.00  0.00    -0.252 OA
BRANCH  10  13
ATOM     13  C   LIG    1        7.996   0.504  -4.180  0.00  0.00    +0.169 A 
ATOM     14  C   LIG    1        8.423   0.849  -5.460  0.00  0.00    +0.092 A 
ATOM     15  C   LIG    1        9.803   0.800  -5.426  0.00  0.00    +0.153 A 
ATOM     16  O   LIG    1       10.171   0.435  -4.170  0.00  0.00    -0.357 OA
ATOM     17  N   LIG    1        9.027   0.252  -3.394  0.00  0.00    -0.063 NA
BRANCH  15  18
ATOM     18  C   LIG    1       10.921   1.055  -6.439  0.00  0.00    +0.120 C 
ATOM     19  C   LIG    1       11.887   2.127  -5.873  0.00  0.00    +0.028 C 
ATOM     20  C   LIG    1       10.314   1.601  -7.757  0.00  0.00    +0.028 C 
BRANCH  18  21
ATOM     21  C   LIG    1       11.691  -0.270  -6.724  0.00  0.00    +0.402 C 
ATOM     22  F   LIG    1       12.299  -0.752  -5.638  0.00  0.00    -0.170 F 
ATOM     23  F   LIG    1       12.643  -0.093  -7.643  0.00  0.00    -0.170 F 
ATOM     24  F   LIG    1       10.884  -1.225  -7.191  0.00  0.00    -0.170 F 
ENDBRANCH  18  21
ENDBRANCH  15  18
ENDBRANCH  10  13
ENDBRANCH   3   7
BRANCH   1  25
ATOM     25  O   LIG    1        0.208   0.416  -1.323  0.00  0.00    -0.437 OA
BRANCH  25  32
ATOM     26  C   LIG    1       -4.334   2.489  -2.400  0.00  0.00    +0.164 A 
ATOM     27  C   LIG    1       -3.480   3.518  -1.972  0.00  0.00    +0.078 A 
ATOM     28  C   LIG    1       -2.144   3.245  -1.604  0.00  0.00    +0.082 A 
ATOM     29  N   LIG    1       -1.343   4.271  -1.195  0.00  0.00    -0.235 NA
ATOM     30  C   LIG    1       -0.070   3.951  -0.854  0.00  0.00    +0.225 A 
ATOM     31  N   LIG    1        0.492   2.721  -0.875  0.00  0.00    -0.201 NA
ATOM     32  C   LIG    1       -0.314   1.700  -1.284  0.00  0.00    +0.231 A 
ATOM     33  C   LIG    1       -1.667   1.904  -1.670  0.00  0.00    +0.066 A 
ATOM     34  C   LIG    1       -2.539   0.878  -2.104  0.00  0.00    +0.064 A 
ATOM     35  C   LIG    1       -3.863   1.170  -2.468  0.00  0.00    +0.162 A 
BRANCH  26  37
ATOM     36  C   LIG    1       -6.195   4.015  -2.723  0.00  0.00    +0.277 C 
ATOM     37  O   LIG    1       -5.651   2.700  -2.771  0.00  0.00    -0.491 OA
ENDBRANCH  26  37
BRANCH  35  38
ATOM     38  O   LIG    1       -4.761   0.209  -2.901  0.00  0.00    -0.491 OA
ATOM     39  C   LIG    1       -4.347  -1.150  -2.997  0.00  0.00    +0.277 C 
ENDBRANCH  35  38
ENDBRANCH  25  32
ENDBRANCH   1  25
TORSDOF 8
