REMARK  Name = DB15141
REMARK                            x       y       z     vdW  Elec       q    Type
REMARK                         _______ _______ _______ _____ _____    ______ ____
ROOT
ATOM      1  C   LIG    1       -2.842   0.075   0.000  0.00  0.00    -0.000 A 
ATOM      2  C   LIG    1       -2.146   1.295   0.000  0.00  0.00    +0.122 A 
ATOM      3  C   LIG    1       -0.756   1.320   0.000  0.00  0.00    +0.069 A 
ATOM      4  C   LIG    1        0.010   0.143   0.000  0.00  0.00    +0.041 A 
ATOM      5  C   LIG    1       -0.660  -1.111   0.000  0.00  0.00    -0.020 A 
ATOM      6  C   LIG    1       -2.070  -1.098   0.000  0.00  0.00    +0.013 A 
ENDROOT
BRANCH   1   8
ATOM      7  C   LIG    1       -4.972   0.698   1.271  0.00  0.00    +0.015 C 
ATOM      8  C   LIG    1       -4.404   0.015   0.000  0.00  0.00    -0.009 C 
ATOM      9  C   LIG    1       -4.972   0.698  -1.271  0.00  0.00    +0.015 C 
ATOM     10  C   LIG    1       -4.971  -1.434   0.000  0.00  0.00    +0.015 C 
ENDBRANCH   1   8
BRANCH   4  11
ATOM     11  N   LIG    1        1.429   0.169   0.000  0.00  0.00    -0.281 N 
ATOM     12  H   LIG    1        1.838  -0.753   0.000  0.00  0.00    +0.155 HD
ATOM     13  C   LIG    1        2.322   1.196   0.000  0.00  0.00    +0.253 C 
ATOM     14  O   LIG    1        1.972   2.377   0.000  0.00  0.00    -0.270 OA
BRANCH  13  15
ATOM     15  C   LIG    1        3.750   0.827   0.000  0.00  0.00    +0.100 A 
ATOM     16  C   LIG    1        4.825   1.886   0.000  0.00  0.00    +0.201 A 
ATOM     17  O   LIG    1        4.628   3.104   0.000  0.00  0.00    -0.286 OA
ATOM     18  C   LIG    1        6.243   1.349   0.000  0.00  0.00    +0.046 A 
ATOM     19  C   LIG    1        7.336   2.232   0.000  0.00  0.00    +0.014 A 
ATOM     20  C   LIG    1        8.647   1.755   0.000  0.00  0.00    +0.001 A 
ATOM     21  C   LIG    1        8.892   0.384   0.000  0.00  0.00    +0.002 A 
ATOM     22  C   LIG    1        7.827  -0.514   0.000  0.00  0.00    +0.026 A 
ATOM     23  C   LIG    1        6.516  -0.034   0.000  0.00  0.00    +0.050 A 
ATOM     24  N   LIG    1        5.439  -0.926   0.000  0.00  0.00    -0.360 N 
ATOM     25  H   LIG    1        5.628  -1.918   0.000  0.00  0.00    +0.165 HD
ATOM     26  C   LIG    1        4.138  -0.482   0.000  0.00  0.00    +0.100 A 
ENDBRANCH  13  15
ENDBRANCH   4  11
BRANCH   5  27
ATOM     27  C   LIG    1        0.098  -2.486   0.000  0.00  0.00    -0.011 C 
ATOM     28  C   LIG    1        0.962  -2.639   1.281  0.00  0.00    +0.015 C 
ATOM     29  C   LIG    1       -0.848  -3.725   0.000  0.00  0.00    +0.015 C 
ATOM     30  C   LIG    1        0.962  -2.639  -1.281  0.00  0.00    +0.015 C 
ENDBRANCH   5  27
BRANCH   2  31
ATOM     31  O   LIG    1       -2.784   2.509   0.000  0.00  0.00    -0.506 OA
ATOM     32  H   LIG    1       -2.174   3.250   0.000  0.00  0.00    +0.292 HD
ENDBRANCH   2  31
TORSDOF 5
