REMARK  Name = DB15398
REMARK                            x       y       z     vdW  Elec       q    Type
REMARK                         _______ _______ _______ _____ _____    ______ ____
ROOT
ATOM      1  O   LIG    1        0.489   2.890   0.253  0.00  0.00    -0.460 OA
ENDROOT
BRANCH   1   2
ATOM      2  C   LIG    1       -0.043   1.870  -0.451  0.00  0.00    +0.307 C 
ATOM      3  O   LIG    1       -0.784   1.968  -1.431  0.00  0.00    -0.251 OA
BRANCH   2   4
ATOM      4  C   LIG    1        0.373   0.504   0.095  0.00  0.00    +0.120 C 
BRANCH   4   5
ATOM      5  C   LIG    1        1.794   0.098  -0.341  0.00  0.00    +0.011 C 
BRANCH   5   6
ATOM      6  C   LIG    1        2.202  -1.283   0.200  0.00  0.00    +0.001 C 
BRANCH   6   7
ATOM      7  C   LIG    1        3.619  -1.702  -0.231  0.00  0.00    +0.000 C 
BRANCH   7   8
ATOM      8  C   LIG    1        4.024  -3.087   0.305  0.00  0.00    +0.000 C 
BRANCH   8   9
ATOM      9  C   LIG    1        5.443  -3.506  -0.131  0.00  0.00    +0.003 C 
BRANCH   9  10
ATOM     10  C   LIG    1        5.856  -4.936   0.295  0.00  0.00    -0.017 C 
ATOM     11  C   LIG    1        7.189  -5.343  -0.360  0.00  0.00    +0.007 C 
ATOM     12  C   LIG    1        5.926  -5.109   1.825  0.00  0.00    +0.007 C 
ENDBRANCH   9  10
ENDBRANCH   8   9
ENDBRANCH   7   8
ENDBRANCH   6   7
ENDBRANCH   5   6
ENDBRANCH   4   5
ENDBRANCH   2   4
ENDBRANCH   1   2
BRANCH   1  13
ATOM     13  C   LIG    1        0.222   4.237  -0.114  0.00  0.00    +0.267 C 
BRANCH  13  16
ATOM     14  C   LIG    1        0.936   6.507   2.884  0.00  0.00    +0.162 A 
ATOM     15  C   LIG    1        0.283   5.643   1.985  0.00  0.00    +0.056 A 
ATOM     16  C   LIG    1        0.938   5.170   0.845  0.00  0.00    -0.007 A 
ATOM     17  C   LIG    1        2.255   5.557   0.592  0.00  0.00    +0.011 A 
ATOM     18  C   LIG    1        2.913   6.412   1.473  0.00  0.00    +0.049 A 
ATOM     19  C   LIG    1        2.259   6.884   2.612  0.00  0.00    +0.158 A 
BRANCH  14  21
ATOM     20  C   LIG    1       -0.993   6.655   4.345  0.00  0.00    +0.277 C 
ATOM     21  O   LIG    1        0.349   7.011   4.032  0.00  0.00    -0.491 OA
ENDBRANCH  14  21
BRANCH  19  22
ATOM     22  O   LIG    1        2.931   7.724   3.462  0.00  0.00    -0.503 OA
ATOM     23  H   LIG    1        2.396   7.993   4.213  0.00  0.00    +0.292 HD
ENDBRANCH  19  22
ENDBRANCH  13  16
ENDBRANCH   1  13
TORSDOF 12
