REMARK  Name = DB15134
REMARK                            x       y       z     vdW  Elec       q    Type
REMARK                         _______ _______ _______ _____ _____    ______ ____
ROOT
ATOM      1  C   LIG    1       -2.024   0.108  -1.394  0.00  0.00    +0.179 C 
ATOM      2  C   LIG    1       -1.660   1.537  -0.975  0.00  0.00    +0.183 C 
ATOM      3  O   LIG    1       -0.491   1.380  -0.175  0.00  0.00    -0.345 OA
ATOM      4  C   LIG    1       -0.089   0.043  -0.109  0.00  0.00    +0.253 C 
ATOM      5  C   LIG    1       -0.687  -0.621  -1.346  0.00  0.00    +0.195 C 
ENDROOT
BRANCH   4   6
ATOM      6  N   LIG    1        1.362  -0.038  -0.031  0.00  0.00    -0.283 N 
ATOM      7  C   LIG    1        2.211  -1.004   0.513  0.00  0.00    +0.288 A 
ATOM      8  N   LIG    1        3.489  -0.734   0.330  0.00  0.00    -0.215 NA
ATOM      9  C   LIG    1        3.517   0.392  -0.349  0.00  0.00    +0.132 A 
ATOM     10  C   LIG    1        2.243   0.850  -0.607  0.00  0.00    +0.111 A 
BRANCH   7  11
ATOM     11  N   LIG    1        1.758  -2.189   1.204  0.00  0.00    +0.043 N 
ATOM     12  O   LIG    1        0.573  -2.319   1.485  0.00  0.00    -0.127 OA
BRANCH  11  13
ATOM     13  O   LIG    1        2.605  -3.031   1.492  0.00  0.00    -0.394 OA
ATOM     14  H   LIG    1        3.501  -2.892   1.259  0.00  0.00    +0.329 HD
ENDBRANCH  11  13
ENDBRANCH   7  11
ENDBRANCH   4   6
BRANCH   1  15
ATOM     15  O   LIG    1       -2.631   0.041  -2.670  0.00  0.00    -0.386 OA
ATOM     16  H   LIG    1       -2.692  -0.883  -2.928  0.00  0.00    +0.210 HD
ENDBRANCH   1  15
BRANCH   2  17
ATOM     17  C   LIG    1       -2.740   2.273  -0.167  0.00  0.00    +0.247 C 
ATOM     18  F   LIG    1       -2.396   3.517   0.163  0.00  0.00    -0.246 F 
ENDBRANCH   2  17
BRANCH   5  19
ATOM     19  O   LIG    1       -0.784  -2.024  -1.188  0.00  0.00    -0.385 OA
ATOM     20  H   LIG    1        0.096  -2.403  -1.257  0.00  0.00    +0.210 HD
ENDBRANCH   5  19
TORSDOF 6
