REMARK  Name = DB15576
REMARK                            x       y       z     vdW  Elec       q    Type
REMARK                         _______ _______ _______ _____ _____    ______ ____
ROOT
ATOM      1  C   LIG    1        0.018  -0.092   0.000  0.00  0.00    +0.100 A 
ATOM      2  C   LIG    1       -0.757  -1.277   0.000  0.00  0.00    +0.131 A 
ATOM      3  C   LIG    1       -2.152  -1.210   0.000  0.00  0.00    +0.046 A 
ATOM      4  C   LIG    1       -2.803   0.020   0.000  0.00  0.00    +0.004 A 
ATOM      5  C   LIG    1       -2.059   1.195   0.000  0.00  0.00    +0.001 A 
ATOM      6  C   LIG    1       -0.666   1.139   0.000  0.00  0.00    +0.018 A 
ENDROOT
BRANCH   2   7
ATOM      7  O   LIG    1       -0.200  -2.533   0.000  0.00  0.00    -0.506 OA
ATOM      8  H   LIG    1       -0.857  -3.233   0.000  0.00  0.00    +0.292 HD
ENDBRANCH   2   7
BRANCH   1   9
ATOM      9  C   LIG    1        1.530  -0.118   0.000  0.00  0.00    +0.343 C 
ATOM     10  O   LIG    1        2.203  -1.153   0.000  0.00  0.00    -0.245 OA
BRANCH   9  11
ATOM     11  O   LIG    1        2.089   1.121   0.000  0.00  0.00    -0.461 OA
BRANCH  11  12
ATOM     12  C   LIG    1        3.501   1.293   0.000  0.00  0.00    +0.229 C 
ATOM     13  C   LIG    1        3.830   2.789   0.000  0.00  0.00    +0.048 C 
ENDBRANCH  11  12
ENDBRANCH   9  11
ENDBRANCH   1   9
TORSDOF 4
