REMARK  Name = DB15080
REMARK                            x       y       z     vdW  Elec       q    Type
REMARK                         _______ _______ _______ _____ _____    ______ ____
ROOT
ATOM      1  C   LIG    1       -1.300  -0.853  -1.221  0.00  0.00    +0.175 C 
ATOM      2  C   LIG    1       -0.453   0.076  -0.292  0.00  0.00    +0.138 C 
ATOM      3  C   LIG    1       -0.884  -0.091   1.197  0.00  0.00    -0.045 C 
ATOM      4  C   LIG    1       -2.397   0.111   1.418  0.00  0.00    -0.027 C 
ATOM      5  C   LIG    1       -3.212  -0.848   0.529  0.00  0.00    -0.045 C 
ATOM      6  C   LIG    1       -2.834  -0.719  -0.975  0.00  0.00    +0.131 C 
ENDROOT
BRANCH   3   7
ATOM      7  N   LIG    1       -0.128   0.909   2.091  0.00  0.00    +0.382 N 
ATOM      8  H   LIG    1       -0.377   0.770   3.061  0.00  0.00    -0.090 HD
ATOM      9  H   LIG    1        0.869   0.779   1.994  0.00  0.00    -0.090 HD
ATOM     10  H   LIG    1       -0.357   1.858   1.832  0.00  0.00    -0.090 HD
ENDBRANCH   3   7
BRANCH   5  11
ATOM     11  N   LIG    1       -4.713  -0.554   0.735  0.00  0.00    +0.382 N 
ATOM     12  H   LIG    1       -5.268  -1.181   0.168  0.00  0.00    -0.090 HD
ATOM     13  H   LIG    1       -4.969  -0.683   1.703  0.00  0.00    -0.090 HD
ATOM     14  H   LIG    1       -4.927   0.396   0.465  0.00  0.00    -0.090 HD
ENDBRANCH   5  11
BRANCH   6  15
ATOM     15  O   LIG    1       -3.575  -1.629  -1.773  0.00  0.00    -0.391 OA
ATOM     16  H   LIG    1       -3.202  -1.634  -2.659  0.00  0.00    +0.210 HD
ENDBRANCH   6  15
BRANCH   1  17
ATOM     17  O   LIG    1       -1.062  -0.524  -2.593  0.00  0.00    -0.340 OA
BRANCH  17  21
ATOM     18  C   LIG    1        0.853  -2.282  -4.913  0.00  0.00    +0.138 C 
ATOM     19  C   LIG    1       -0.444  -2.092  -5.725  0.00  0.00    +0.175 C 
ATOM     20  C   LIG    1       -1.278  -1.136  -4.872  0.00  0.00    +0.201 C 
ATOM     21  C   LIG    1       -0.870  -1.591  -3.478  0.00  0.00    +0.282 C 
ATOM     22  O   LIG    1        0.486  -1.907  -3.584  0.00  0.00    -0.344 OA
BRANCH  18  24
ATOM     23  C   LIG    1        2.648  -1.924  -6.761  0.00  0.00    -0.012 C 
ATOM     24  C   LIG    1        2.116  -1.497  -5.380  0.00  0.00    -0.046 C 
BRANCH  24  25
ATOM     25  N   LIG    1        1.894   0.026  -5.373  0.00  0.00    +0.382 N 
ATOM     26  H   LIG    1        1.585   0.333  -4.461  0.00  0.00    -0.090 HD
ATOM     27  H   LIG    1        2.753   0.505  -5.606  0.00  0.00    -0.090 HD
ATOM     28  H   LIG    1        1.191   0.277  -6.053  0.00  0.00    -0.090 HD
ENDBRANCH  24  25
ENDBRANCH  18  24
BRANCH  19  29
ATOM     29  O   LIG    1       -1.083  -3.332  -5.992  0.00  0.00    -0.387 OA
ATOM     30  H   LIG    1       -1.187  -3.814  -5.168  0.00  0.00    +0.210 HD
ENDBRANCH  19  29
BRANCH  20  31
ATOM     31  O   LIG    1       -2.684  -1.196  -5.030  0.00  0.00    -0.384 OA
ATOM     32  H   LIG    1       -2.942  -2.113  -5.158  0.00  0.00    +0.210 HD
ENDBRANCH  20  31
ENDBRANCH  17  21
ENDBRANCH   1  17
BRANCH   2  33
ATOM     33  O   LIG    1        0.953  -0.209  -0.379  0.00  0.00    -0.349 OA
BRANCH  33  34
ATOM     34  C   LIG    1        1.692   0.373  -1.425  0.00  0.00    +0.239 C 
ATOM     35  C   LIG    1        3.104  -0.253  -1.502  0.00  0.00    +0.014 C 
ATOM     36  C   LIG    1        4.019   0.220  -0.344  0.00  0.00    +0.136 C 
ATOM     37  C   LIG    1        3.984   1.760  -0.236  0.00  0.00    +0.173 C 
ATOM     38  C   LIG    1        2.512   2.250  -0.163  0.00  0.00    +0.180 C 
ATOM     39  O   LIG    1        1.782   1.771  -1.303  0.00  0.00    -0.345 OA
BRANCH  35  40
ATOM     40  N   LIG    1        2.998  -1.794  -1.492  0.00  0.00    +0.385 N 
ATOM     41  H   LIG    1        2.422  -2.116  -2.256  0.00  0.00    -0.089 HD
ATOM     42  H   LIG    1        3.918  -2.205  -1.579  0.00  0.00    -0.089 HD
ATOM     43  H   LIG    1        2.588  -2.107  -0.623  0.00  0.00    -0.089 HD
ENDBRANCH  35  40
BRANCH  36  44
ATOM     44  O   LIG    1        5.350  -0.247  -0.512  0.00  0.00    -0.391 OA
ATOM     45  H   LIG    1        5.929   0.269   0.056  0.00  0.00    +0.210 HD
ENDBRANCH  36  44
BRANCH  37  46
ATOM     46  O   LIG    1        4.760   2.195   0.868  0.00  0.00    -0.387 OA
ATOM     47  H   LIG    1        5.076   3.085   0.694  0.00  0.00    +0.210 HD
ENDBRANCH  37  46
BRANCH  38  48
ATOM     48  C   LIG    1        2.343   3.795  -0.090  0.00  0.00    +0.143 C 
ATOM     49  C   LIG    1        0.896   4.268  -0.328  0.00  0.00    +0.040 C 
BRANCH  48  50
ATOM     50  O   LIG    1        2.706   4.270   1.193  0.00  0.00    -0.389 OA
ATOM     51  H   LIG    1        3.606   3.997   1.386  0.00  0.00    +0.210 HD
ENDBRANCH  48  50
ENDBRANCH  38  48
ENDBRANCH  33  34
ENDBRANCH   2  33
TORSDOF 16
