REMARK  Name = DB15690
REMARK                            x       y       z     vdW  Elec       q    Type
REMARK                         _______ _______ _______ _____ _____    ______ ____
ROOT
ATOM      1  C   LIG    1       -0.184   0.085   0.074  0.00  0.00    +0.014 C 
ATOM      2  C   LIG    1        1.375  -0.004   0.034  0.00  0.00    -0.000 C 
ATOM      3  C   LIG    1        1.966   0.486   1.383  0.00  0.00    +0.154 C 
ATOM      4  C   LIG    1        1.837  -0.735   2.329  0.00  0.00    +0.195 C 
ATOM      5  F   LIG    1        2.926  -0.815   3.096  0.00  0.00    -0.243 F 
ATOM      6  C   LIG    1        1.715  -1.986   1.433  0.00  0.00    +0.044 C 
ATOM      7  C   LIG    1        1.936   0.707  -1.226  0.00  0.00    +0.010 C 
ATOM      8  C   LIG    1        1.466   0.014  -2.532  0.00  0.00    +0.009 C 
ATOM      9  C   LIG    1        1.811  -1.509  -2.558  0.00  0.00    +0.023 C 
ATOM     10  C   LIG    1        1.247  -2.320  -3.735  0.00  0.00    -0.041 A 
ATOM     11  C   LIG    1        0.543  -1.749  -4.806  0.00  0.00    +0.008 A 
ATOM     12  C   LIG    1        0.018  -2.539  -5.826  0.00  0.00    +0.046 A 
ATOM     13  C   LIG    1        0.189  -3.919  -5.793  0.00  0.00    +0.117 A 
ATOM     14  C   LIG    1        0.893  -4.502  -4.742  0.00  0.00    +0.049 A 
ATOM     15  C   LIG    1        1.432  -3.718  -3.715  0.00  0.00    -0.040 A 
ATOM     16  C   LIG    1        2.241  -4.333  -2.578  0.00  0.00    +0.036 C 
ATOM     17  C   LIG    1        1.836  -3.758  -1.199  0.00  0.00    +0.009 C 
ATOM     18  C   LIG    1        1.476  -2.246  -1.220  0.00  0.00    +0.001 C 
ATOM     19  C   LIG    1        1.947  -1.444   0.018  0.00  0.00    +0.004 C 
ENDROOT
BRANCH   3  20
ATOM     20  O   LIG    1        1.437   1.694   1.899  0.00  0.00    -0.388 OA
ATOM     21  H   LIG    1        1.789   2.425   1.385  0.00  0.00    +0.210 HD
ENDBRANCH   3  20
BRANCH  13  22
ATOM     22  O   LIG    1       -0.328  -4.700  -6.792  0.00  0.00    -0.507 OA
ATOM     23  H   LIG    1       -0.791  -4.190  -7.460  0.00  0.00    +0.292 HD
ENDBRANCH  13  22
TORSDOF 2
