REMARK  Name = DB15325
REMARK                            x       y       z     vdW  Elec       q    Type
REMARK                         _______ _______ _______ _____ _____    ______ ____
ROOT
ATOM      1  C   LIG    1        1.384   0.096   0.205  0.00  0.00    +0.093 A 
ATOM      2  C   LIG    1        2.096  -0.361  -0.923  0.00  0.00    +0.144 A 
ATOM      3  C   LIG    1        3.501  -0.307  -0.907  0.00  0.00    +0.051 A 
ATOM      4  C   LIG    1        4.182   0.181   0.207  0.00  0.00    -0.041 A 
ATOM      5  C   LIG    1        5.667   0.389   0.401  0.00  0.00    +0.036 C 
ATOM      6  C   LIG    1        5.798   0.792   1.871  0.00  0.00    +0.009 C 
ATOM      7  C   LIG    1        4.407   1.204   2.358  0.00  0.00    +0.036 C 
ATOM      8  C   LIG    1        3.471   0.643   1.312  0.00  0.00    -0.042 A 
ATOM      9  C   LIG    1        2.079   0.618   1.301  0.00  0.00    +0.032 A 
ENDROOT
BRANCH   1  10
ATOM     10  N   LIG    1       -0.024   0.105   0.282  0.00  0.00    -0.197 N 
BRANCH  10  11
ATOM     11  S   LIG    1       -0.918   1.486  -0.416  0.00  0.00    +0.099 S 
ATOM     12  O   LIG    1       -0.090   2.687  -0.258  0.00  0.00    -0.148 OA
ATOM     13  O   LIG    1       -2.290   1.435   0.102  0.00  0.00    -0.148 OA
BRANCH  11  14
ATOM     14  C   LIG    1       -1.024   1.116  -2.185  0.00  0.00    +0.236 A 
ATOM     15  S   LIG    1       -0.017   1.902  -3.362  0.00  0.00    -0.055 S 
ATOM     16  C   LIG    1       -0.855   1.007  -4.593  0.00  0.00    +0.068 A 
ATOM     17  C   LIG    1       -1.810   0.195  -3.990  0.00  0.00    +0.120 A 
ATOM     18  N   LIG    1       -1.892   0.266  -2.676  0.00  0.00    -0.229 NA
ENDBRANCH  11  14
ENDBRANCH  10  11
BRANCH  10  19
ATOM     19  C   LIG    1       -0.705  -1.194   0.189  0.00  0.00    +0.134 C 
BRANCH  19  21
ATOM     20  C   LIG    1       -0.958  -3.603   0.946  0.00  0.00    +0.009 C 
ATOM     21  C   LIG    1       -0.255  -2.261   1.216  0.00  0.00    +0.002 C 
ATOM     22  C   LIG    1       -0.478  -1.808   2.672  0.00  0.00    +0.009 C 
ENDBRANCH  19  21
ENDBRANCH  10  19
ENDBRANCH   1  10
BRANCH   2  23
ATOM     23  O   LIG    1        1.377  -0.847  -1.998  0.00  0.00    -0.485 OA
BRANCH  23  24
ATOM     24  C   LIG    1        2.042  -1.563  -3.036  0.00  0.00    +0.265 C 
BRANCH  24  25
ATOM     25  C   LIG    1        0.993  -2.125  -3.990  0.00  0.00    -0.007 A 
ATOM     26  C   LIG    1        0.957  -1.805  -5.358  0.00  0.00    -0.043 A 
ATOM     27  C   LIG    1        1.992  -0.889  -5.999  0.00  0.00    +0.044 C 
ATOM     28  C   LIG    1       -0.062  -2.329  -6.161  0.00  0.00    +0.018 A 
ATOM     29  C   LIG    1       -1.062  -3.174  -5.643  0.00  0.00    +0.059 A 
ATOM     30  C   LIG    1       -0.988  -3.493  -4.274  0.00  0.00    +0.015 A 
ATOM     31  C   LIG    1        0.022  -2.981  -3.466  0.00  0.00    +0.008 A 
BRANCH  29  32
ATOM     32  C   LIG    1       -2.174  -3.714  -6.519  0.00  0.00    +0.337 C 
ATOM     33  O   LIG    1       -2.213  -3.371  -7.725  0.00  0.00    -0.245 OA
BRANCH  32  34
ATOM     34  O   LIG    1       -3.025  -4.483  -6.011  0.00  0.00    -0.477 OA
ATOM     35  H   LIG    1       -3.720  -4.826  -6.537  0.00  0.00    +0.295 HD
ENDBRANCH  32  34
ENDBRANCH  29  32
ENDBRANCH  24  25
ENDBRANCH  23  24
ENDBRANCH   2  23
TORSDOF 10
