REMARK  Name = DB15293
REMARK                            x       y       z     vdW  Elec       q    Type
REMARK                         _______ _______ _______ _____ _____    ______ ____
ROOT
ATOM      1  C   LIG    1        1.387   0.120   0.491  0.00  0.00    +0.023 C 
ATOM      2  C   LIG    1        2.188   1.129   0.072  0.00  0.00    +0.077 C 
ATOM      3  C   LIG    1        3.592   1.170   0.420  0.00  0.00    +0.259 C 
ATOM      4  O   LIG    1        4.183   0.330   1.107  0.00  0.00    -0.269 OA
ATOM      5  N   LIG    1        4.178   2.274  -0.118  0.00  0.00    -0.244 N 
ATOM      6  C   LIG    1        3.414   3.118  -0.880  0.00  0.00    +0.121 C 
ATOM      7  S   LIG    1        3.801   4.526  -1.690  0.00  0.00    -0.027 S 
ATOM      8  S   LIG    1        1.782   2.517  -0.938  0.00  0.00    -0.061 S 
ENDROOT
BRANCH   1  10
ATOM      9  C   LIG    1       -0.498  -1.319  -0.440  0.00  0.00    +0.044 C 
ATOM     10  C   LIG    1       -0.037  -0.021   0.207  0.00  0.00    -0.049 C 
ATOM     11  C   LIG    1       -0.878   1.010   0.468  0.00  0.00    +0.011 C 
BRANCH  11  12
ATOM     12  C   LIG    1       -2.342   1.074   0.288  0.00  0.00    -0.025 A 
ATOM     13  C   LIG    1       -2.897   2.231  -0.267  0.00  0.00    +0.008 A 
ATOM     14  C   LIG    1       -4.274   2.332  -0.448  0.00  0.00    +0.001 A 
ATOM     15  C   LIG    1       -5.098   1.276  -0.068  0.00  0.00    +0.000 A 
ATOM     16  C   LIG    1       -4.558   0.122   0.496  0.00  0.00    +0.001 A 
ATOM     17  C   LIG    1       -3.181   0.023   0.676  0.00  0.00    +0.008 A 
ENDBRANCH  11  12
ENDBRANCH   1  10
BRANCH   5  18
ATOM     18  C   LIG    1        5.632   2.531   0.105  0.00  0.00    +0.235 C 
BRANCH  18  19
ATOM     19  C   LIG    1        5.975   3.345   1.380  0.00  0.00    +0.323 C 
ATOM     20  O   LIG    1        7.192   3.572   1.559  0.00  0.00    -0.249 OA
BRANCH  19  21
ATOM     21  O   LIG    1        5.069   3.733   2.155  0.00  0.00    -0.480 OA
ATOM     22  H   LIG    1        5.287   4.224   2.923  0.00  0.00    +0.295 HD
ENDBRANCH  19  21
ENDBRANCH  18  19
ENDBRANCH   5  18
TORSDOF 5
