REMARK  Name = DB15638
REMARK                            x       y       z     vdW  Elec       q    Type
REMARK                         _______ _______ _______ _____ _____    ______ ____
ROOT
ATOM      1  C   LIG    1       -1.711   4.162   0.172  0.00  0.00    -0.018 A 
ATOM      2  C   LIG    1       -1.067   3.704   1.329  0.00  0.00    +0.009 A 
ATOM      3  C   LIG    1       -0.493   2.436   1.369  0.00  0.00    +0.004 A 
ATOM      4  C   LIG    1       -0.556   1.608   0.248  0.00  0.00    -0.045 A 
ATOM      5  C   LIG    1       -1.193   2.053  -0.911  0.00  0.00    +0.004 A 
ATOM      6  C   LIG    1       -1.766   3.321  -0.947  0.00  0.00    +0.009 A 
ENDROOT
BRANCH   1  11
ATOM      7  C   LIG    1       -2.258   8.628  -3.270  0.00  0.00    +0.156 C 
ATOM      8  N   LIG    1       -2.852   8.608  -1.938  0.00  0.00    -0.277 N 
ATOM      9  C   LIG    1       -2.790   7.594  -1.012  0.00  0.00    +0.090 A 
ATOM     10  C   LIG    1       -2.198   6.332  -1.008  0.00  0.00    +0.038 A 
ATOM     11  C   LIG    1       -2.328   5.518   0.134  0.00  0.00    -0.016 A 
ATOM     12  C   LIG    1       -3.053   6.009   1.240  0.00  0.00    +0.012 A 
ATOM     13  C   LIG    1       -3.642   7.279   1.221  0.00  0.00    +0.049 A 
ATOM     14  C   LIG    1       -3.488   8.046   0.072  0.00  0.00    +0.157 A 
ATOM     15  O   LIG    1       -3.970   9.296  -0.165  0.00  0.00    -0.407 OA
ATOM     16  C   LIG    1       -3.588   9.678  -1.417  0.00  0.00    +0.421 A 
ATOM     17  O   LIG    1       -3.881  10.768  -1.905  0.00  0.00    -0.223 OA
ENDBRANCH   1  11
BRANCH   4  18
ATOM     18  C   LIG    1        0.081   0.224   0.291  0.00  0.00    +0.072 C 
BRANCH  18  19
ATOM     19  C   LIG    1        1.615   0.241   0.121  0.00  0.00    +0.180 C 
BRANCH  19  20
ATOM     20  N   LIG    1        2.014   0.877  -1.140  0.00  0.00    -0.297 N 
ATOM     21  H   LIG    1        1.305   1.447  -1.580  0.00  0.00    +0.150 HD
ATOM     22  C   LIG    1        3.260   0.953  -1.647  0.00  0.00    +0.241 C 
ATOM     23  O   LIG    1        4.233   0.442  -1.092  0.00  0.00    -0.273 OA
BRANCH  22  24
ATOM     24  C   LIG    1        3.450   1.702  -2.987  0.00  0.00    +0.187 C 
ATOM     25  O   LIG    1        2.251   2.421  -3.297  0.00  0.00    -0.369 OA
ATOM     26  C   LIG    1        2.019   2.754  -4.661  0.00  0.00    +0.159 C 
ATOM     27  C   LIG    1        3.054   3.691  -5.311  0.00  0.00    +0.009 C 
ATOM     28  C   LIG    1        4.421   3.035  -5.557  0.00  0.00    -0.080 C 
ATOM     29  N   LIG    1        5.310   2.951  -4.305  0.00  0.00    +0.381 N 
ATOM     30  H   LIG    1        6.003   2.236  -4.481  0.00  0.00    -0.086 HD
ATOM     31  H   LIG    1        5.812   3.824  -4.220  0.00  0.00    -0.086 HD
ATOM     32  C   LIG    1        4.668   2.662  -2.937  0.00  0.00    -0.041 C 
ENDBRANCH  22  24
ENDBRANCH  19  20
BRANCH  19  33
ATOM     33  C   LIG    1        2.178  -1.114   0.286  0.00  0.00    +0.085 C 
ATOM     34  N   LIG    1        2.617  -2.176   0.416  0.00  0.00    -0.195 NA
ENDBRANCH  19  33
ENDBRANCH  18  19
ENDBRANCH   4  18
TORSDOF 6
