REMARK  Name = DB15324
REMARK                            x       y       z     vdW  Elec       q    Type
REMARK                         _______ _______ _______ _____ _____    ______ ____
ROOT
ATOM      1  N   LIG    1        2.199  -2.164   0.605  0.00  0.00    -0.318 N 
ATOM      2  C   LIG    1        2.849  -3.056   1.586  0.00  0.00    +0.088 C 
ATOM      3  C   LIG    1        4.225  -3.589   1.126  0.00  0.00    -0.059 C 
ATOM      4  N   LIG    1        4.047  -4.362  -0.197  0.00  0.00    +0.384 N 
ATOM      5  H   LIG    1        3.419  -5.136  -0.027  0.00  0.00    -0.082 HD
ATOM      6  C   LIG    1        3.397  -3.415  -1.228  0.00  0.00    -0.059 C 
ATOM      7  C   LIG    1        2.053  -2.902  -0.663  0.00  0.00    +0.088 C 
ENDROOT
BRANCH   1   9
ATOM      8  C   LIG    1        1.471   0.122   0.022  0.00  0.00    +0.018 A 
ATOM      9  C   LIG    1        2.401  -0.782   0.586  0.00  0.00    +0.126 A 
ATOM     10  N   LIG    1        3.587  -0.346   1.103  0.00  0.00    -0.240 NA
ATOM     11  C   LIG    1        3.885   0.975   1.057  0.00  0.00    +0.113 A 
ATOM     12  C   LIG    1        3.030   1.919   0.495  0.00  0.00    +0.020 A 
ATOM     13  C   LIG    1        1.814   1.481  -0.025  0.00  0.00    +0.011 A 
BRANCH   8  14
ATOM     14  C   LIG    1        0.103  -0.305  -0.512  0.00  0.00    +0.198 C 
BRANCH  14  16
ATOM     15  C   LIG    1       -2.186   0.336  -0.602  0.00  0.00    +0.194 C 
ATOM     16  O   LIG    1       -0.897   0.607  -0.073  0.00  0.00    -0.378 OA
ENDBRANCH  14  16
ENDBRANCH   8  14
ENDBRANCH   1   9
BRANCH   4  17
ATOM     17  C   LIG    1        5.410  -4.916  -0.681  0.00  0.00    -0.030 C 
BRANCH  17  18
ATOM     18  C   LIG    1        5.245  -5.875  -1.889  0.00  0.00    +0.194 C 
ATOM     19  O   LIG    1        4.179  -6.819  -1.684  0.00  0.00    -0.484 OA
ATOM     20  C   LIG    1        4.513  -7.896  -0.884  0.00  0.00    +0.162 A 
ATOM     21  C   LIG    1        3.475  -8.664  -0.356  0.00  0.00    +0.049 A 
ATOM     22  C   LIG    1        3.773  -9.787   0.419  0.00  0.00    +0.004 A 
ATOM     23  C   LIG    1        5.102 -10.144   0.660  0.00  0.00    +0.004 A 
ATOM     24  C   LIG    1        6.144  -9.381   0.128  0.00  0.00    +0.049 A 
ATOM     25  C   LIG    1        5.849  -8.262  -0.652  0.00  0.00    +0.162 A 
ATOM     26  O   LIG    1        6.905  -7.505  -1.122  0.00  0.00    -0.485 OA
ATOM     27  C   LIG    1        6.549  -6.651  -2.214  0.00  0.00    +0.271 C 
ENDBRANCH  17  18
ENDBRANCH   4  17
TORSDOF 5
