REMARK  Name = DB15652
REMARK                            x       y       z     vdW  Elec       q    Type
REMARK                         _______ _______ _______ _____ _____    ______ ____
ROOT
ATOM      1  C   LIG    1        1.559   0.150  -0.248  0.00  0.00    -0.023 A 
ATOM      2  C   LIG    1        2.301   1.322  -0.408  0.00  0.00    +0.006 A 
ATOM      3  C   LIG    1        3.691   1.309  -0.332  0.00  0.00    +0.009 A 
ATOM      4  C   LIG    1        4.382   0.098  -0.094  0.00  0.00    -0.017 A 
ATOM      5  C   LIG    1        5.795   0.050  -0.006  0.00  0.00    +0.017 A 
ATOM      6  C   LIG    1        6.471  -1.153   0.228  0.00  0.00    -0.017 A 
ATOM      7  C   LIG    1        5.722  -2.325   0.376  0.00  0.00    +0.009 A 
ATOM      8  C   LIG    1        4.332  -2.316   0.299  0.00  0.00    +0.009 A 
ATOM      9  C   LIG    1        3.636  -1.107   0.064  0.00  0.00    -0.018 A 
ATOM     10  C   LIG    1        2.222  -1.058  -0.017  0.00  0.00    +0.014 A 
ENDROOT
BRANCH   6  11
ATOM     11  C   LIG    1        7.959  -1.178   0.323  0.00  0.00    -0.016 A 
ATOM     12  C   LIG    1        8.590  -1.953   1.308  0.00  0.00    +0.011 A 
ATOM     13  C   LIG    1        9.977  -1.991   1.453  0.00  0.00    +0.030 A 
ATOM     14  C   LIG    1       10.753  -1.217   0.582  0.00  0.00    +0.089 A 
ATOM     15  N   LIG    1       12.113  -1.067   0.532  0.00  0.00    -0.231 NA
ATOM     16  C   LIG    1       12.319  -0.219  -0.448  0.00  0.00    +0.129 A 
ATOM     17  N   LIG    1       11.157   0.178  -1.066  0.00  0.00    -0.340 N 
ATOM     18  H   LIG    1       11.129   0.831  -1.835  0.00  0.00    +0.167 HD
ATOM     19  C   LIG    1       10.116  -0.441  -0.415  0.00  0.00    +0.067 A 
ATOM     20  C   LIG    1        8.728  -0.410  -0.569  0.00  0.00    +0.036 A 
BRANCH  16  21
ATOM     21  C   LIG    1       13.683   0.325  -0.859  0.00  0.00    +0.142 C 
ATOM     22  N   LIG    1       14.623   0.643   0.236  0.00  0.00    -0.290 N 
ATOM     23  C   LIG    1       14.333   1.531   1.223  0.00  0.00    +0.237 C 
ATOM     24  O   LIG    1       13.281   2.176   1.247  0.00  0.00    -0.274 OA
ATOM     25  C   LIG    1       15.904  -0.060   0.083  0.00  0.00    +0.108 C 
ATOM     26  C   LIG    1       15.547  -1.210  -0.854  0.00  0.00    +0.021 C 
ATOM     27  C   LIG    1       14.479  -0.628  -1.761  0.00  0.00    +0.032 C 
BRANCH  23  28
ATOM     28  C   LIG    1       15.337   1.710   2.405  0.00  0.00    +0.165 C 
BRANCH  28  29
ATOM     29  N   LIG    1       15.219   3.008   3.109  0.00  0.00    -0.270 N 
ATOM     30  H   LIG    1       14.895   2.986   4.065  0.00  0.00    +0.153 HD
ATOM     31  C   LIG    1       15.528   4.248   2.543  0.00  0.00    +0.401 C 
ATOM     32  O   LIG    1       15.394   5.319   3.137  0.00  0.00    -0.226 OA
BRANCH  31  33
ATOM     33  O   LIG    1       16.004   4.135   1.276  0.00  0.00    -0.454 OA
ATOM     34  C   LIG    1       16.362   5.288   0.529  0.00  0.00    +0.282 C 
ENDBRANCH  31  33
ENDBRANCH  28  29
BRANCH  28  35
ATOM     35  C   LIG    1       15.119   0.526   3.411  0.00  0.00    +0.012 C 
ATOM     36  C   LIG    1       16.205   0.500   4.504  0.00  0.00    +0.009 C 
ATOM     37  C   LIG    1       13.716   0.463   4.059  0.00  0.00    +0.009 C 
ENDBRANCH  28  35
ENDBRANCH  23  28
ENDBRANCH  16  21
ENDBRANCH   6  11
BRANCH   1  41
ATOM     38  C   LIG    1       -2.038   1.051  -0.292  0.00  0.00    +0.124 C 
ATOM     39  N   LIG    1       -0.692   1.333  -0.217  0.00  0.00    -0.282 NA
ATOM     40  H   LIG    1       -0.308   2.259  -0.092  0.00  0.00    +0.125 HD
ATOM     41  C   LIG    1        0.067   0.172  -0.313  0.00  0.00    +0.087 C 
ATOM     42  C   LIG    1       -0.862  -0.861  -0.455  0.00  0.00    +0.101 C 
ATOM     43  N   LIG    1       -2.133  -0.312  -0.444  0.00  0.00    -0.288 NA
ATOM     44  H   LIG    1       -2.995  -0.833  -0.527  0.00  0.00    +0.124 HD
BRANCH  38  48
ATOM     45  N   LIG    1       -3.050   3.100   0.819  0.00  0.00    -0.294 N 
ATOM     46  C   LIG    1       -3.005   2.936   2.168  0.00  0.00    +0.237 C 
ATOM     47  O   LIG    1       -2.840   3.881   2.944  0.00  0.00    -0.274 OA
ATOM     48  C   LIG    1       -3.191   2.039  -0.203  0.00  0.00    +0.114 C 
ATOM     49  C   LIG    1       -3.385   2.835  -1.502  0.00  0.00    +0.027 C 
ATOM     50  C   LIG    1       -2.697   4.161  -1.245  0.00  0.00    +0.021 C 
ATOM     51  C   LIG    1       -2.999   4.443   0.223  0.00  0.00    +0.108 C 
BRANCH  46  52
ATOM     52  C   LIG    1       -3.218   1.515   2.783  0.00  0.00    +0.165 C 
BRANCH  52  53
ATOM     53  N   LIG    1       -2.583   1.327   4.106  0.00  0.00    -0.270 N 
ATOM     54  H   LIG    1       -3.196   1.187   4.896  0.00  0.00    +0.153 HD
ATOM     55  C   LIG    1       -1.203   1.310   4.327  0.00  0.00    +0.401 C 
ATOM     56  O   LIG    1       -0.696   1.170   5.440  0.00  0.00    -0.226 OA
BRANCH  55  57
ATOM     57  O   LIG    1       -0.491   1.450   3.179  0.00  0.00    -0.454 OA
ATOM     58  C   LIG    1        0.929   1.466   3.205  0.00  0.00    +0.282 C 
ENDBRANCH  55  57
ENDBRANCH  52  53
BRANCH  52  59
ATOM     59  C   LIG    1       -4.759   1.245   2.871  0.00  0.00    +0.012 C 
ATOM     60  C   LIG    1       -5.058  -0.225   3.221  0.00  0.00    +0.009 C 
ATOM     61  C   LIG    1       -5.534   2.180   3.829  0.00  0.00    +0.009 C 
ENDBRANCH  52  59
ENDBRANCH  46  52
ENDBRANCH  38  48
ENDBRANCH   1  41
TORSDOF 12
