REMARK  Name = DB15259
REMARK                            x       y       z     vdW  Elec       q    Type
REMARK                         _______ _______ _______ _____ _____    ______ ____
ROOT
ATOM      1  C   LIG    1        1.567  -0.925   0.092  0.00  0.00    +0.170 C 
ENDROOT
BRANCH   1   2
ATOM      2  O   LIG    1        2.949  -0.938   0.446  0.00  0.00    -0.372 OA
BRANCH   2   3
ATOM      3  C   LIG    1        3.858  -0.618  -0.601  0.00  0.00    +0.160 C 
BRANCH   3   4
ATOM      4  C   LIG    1        5.282  -0.681  -0.034  0.00  0.00    +0.029 C 
BRANCH   4   5
ATOM      5  C   LIG    1        6.368  -0.336  -1.074  0.00  0.00    +0.013 C 
BRANCH   5   6
ATOM      6  C   LIG    1        7.796  -0.168  -0.487  0.00  0.00    +0.120 C 
BRANCH   6   7
ATOM      7  C   LIG    1        8.394  -1.432   0.175  0.00  0.00    +0.305 C 
ATOM      8  O   LIG    1        9.170  -1.247   1.139  0.00  0.00    -0.251 OA
BRANCH   7   9
ATOM      9  O   LIG    1        8.105  -2.560  -0.287  0.00  0.00    -0.481 OA
ATOM     10  H   LIG    1        8.461  -3.332   0.105  0.00  0.00    +0.295 HD
ENDBRANCH   7   9
ENDBRANCH   6   7
ENDBRANCH   5   6
ENDBRANCH   4   5
ENDBRANCH   3   4
ENDBRANCH   2   3
ENDBRANCH   1   2
BRANCH   1  11
ATOM     11  C   LIG    1        0.826  -1.743   1.167  0.00  0.00    +0.206 C 
BRANCH  11  12
ATOM     12  O   LIG    1        1.304  -3.078   1.162  0.00  0.00    -0.284 OA
BRANCH  12  13
ATOM     13  P   LIG    1        1.092  -3.996   2.609  0.00  0.00    +0.475 P 
ATOM     14  O   LIG    1        1.629  -5.390   2.363  0.00  0.00    -0.227 OA
BRANCH  13  15
ATOM     15  O   LIG    1       -0.297  -3.732   3.150  0.00  0.00    -0.302 OA
ATOM     16  H   LIG    1       -0.949  -4.206   2.611  0.00  0.00    +0.222 HD
ENDBRANCH  13  15
BRANCH  13  17
ATOM     17  O   LIG    1        2.218  -3.134   3.595  0.00  0.00    -0.289 OA
BRANCH  17  18
ATOM     18  C   LIG    1        3.593  -3.291   3.295  0.00  0.00    +0.154 C 
BRANCH  18  19
ATOM     19  C   LIG    1        4.388  -2.286   4.155  0.00  0.00    -0.047 C 
BRANCH  19  20
ATOM     20  N   LIG    1        5.890  -2.654   4.335  0.00  0.00    +0.376 N 
ATOM     21  C   LIG    1        6.598  -2.815   2.971  0.00  0.00    -0.093 C 
ATOM     22  C   LIG    1        6.067  -3.951   5.163  0.00  0.00    -0.093 C 
ATOM     23  C   LIG    1        6.580  -1.499   5.103  0.00  0.00    -0.093 C 
ENDBRANCH  19  20
ENDBRANCH  18  19
ENDBRANCH  17  18
ENDBRANCH  13  17
ENDBRANCH  12  13
ENDBRANCH  11  12
ENDBRANCH   1  11
BRANCH   1  24
ATOM     24  C   LIG    1        1.050   0.529   0.003  0.00  0.00    +0.193 C 
BRANCH  24  25
ATOM     25  O   LIG    1       -0.359   0.525  -0.181  0.00  0.00    -0.377 OA
BRANCH  25  26
ATOM     26  C   LIG    1       -0.959   1.813  -0.162  0.00  0.00    +0.160 C 
BRANCH  26  27
ATOM     27  C   LIG    1       -2.488   1.650  -0.152  0.00  0.00    +0.028 C 
BRANCH  27  28
ATOM     28  C   LIG    1       -3.001   0.888   1.086  0.00  0.00    +0.002 C 
BRANCH  28  29
ATOM     29  C   LIG    1       -4.524   0.674   1.089  0.00  0.00    +0.000 C 
BRANCH  29  30
ATOM     30  C   LIG    1       -4.992  -0.165   2.292  0.00  0.00    +0.000 C 
BRANCH  30  31
ATOM     31  C   LIG    1       -6.504  -0.461   2.277  0.00  0.00    +0.000 C 
BRANCH  31  32
ATOM     32  C   LIG    1       -7.001  -1.290   3.481  0.00  0.00    -0.000 C 
BRANCH  32  33
ATOM     33  C   LIG    1       -6.351  -2.680   3.658  0.00  0.00    -0.000 C 
BRANCH  33  34
ATOM     34  C   LIG    1       -6.537  -3.630   2.459  0.00  0.00    -0.000 C 
BRANCH  34  35
ATOM     35  C   LIG    1       -5.891  -5.010   2.678  0.00  0.00    -0.000 C 
BRANCH  35  36
ATOM     36  C   LIG    1       -6.061  -5.946   1.465  0.00  0.00    -0.000 C 
BRANCH  36  37
ATOM     37  C   LIG    1       -5.313  -7.289   1.587  0.00  0.00    -0.000 C 
BRANCH  37  38
ATOM     38  C   LIG    1       -5.856  -8.224   2.685  0.00  0.00    -0.000 C 
BRANCH  38  39
ATOM     39  C   LIG    1       -5.127  -9.579   2.725  0.00  0.00    -0.000 C 
BRANCH  39  41
ATOM     40  C   LIG    1       -4.934 -11.869   3.856  0.00  0.00    +0.004 C 
ATOM     41  C   LIG    1       -5.673 -10.524   3.809  0.00  0.00    -0.003 C 
ENDBRANCH  39  41
ENDBRANCH  38  39
ENDBRANCH  37  38
ENDBRANCH  36  37
ENDBRANCH  35  36
ENDBRANCH  34  35
ENDBRANCH  33  34
ENDBRANCH  32  33
ENDBRANCH  31  32
ENDBRANCH  30  31
ENDBRANCH  29  30
ENDBRANCH  28  29
ENDBRANCH  27  28
ENDBRANCH  26  27
ENDBRANCH  25  26
ENDBRANCH  24  25
ENDBRANCH   1  24
TORSDOF 32
