REMARK  Name = DB15144
REMARK                            x       y       z     vdW  Elec       q    Type
REMARK                         _______ _______ _______ _____ _____    ______ ____
ROOT
ATOM      1  C   LIG    1        1.254   0.045   0.276  0.00  0.00    +0.122 C 
ATOM      2  C   LIG    1        1.901   1.453   0.009  0.00  0.00    +0.036 C 
ATOM      3  C   LIG    1        2.285   2.185   1.334  0.00  0.00    +0.028 C 
ATOM      4  C   LIG    1        2.874   1.213   2.398  0.00  0.00    +0.058 C 
ATOM      5  N   LIG    1        1.844   0.209   2.673  0.00  0.00    -0.292 NA
ATOM      6  C   LIG    1        4.086   0.407   1.887  0.00  0.00    +0.020 C 
ATOM      7  C   LIG    1        3.461  -0.858   1.280  0.00  0.00    +0.021 C 
ATOM      8  C   LIG    1        1.943  -0.667   1.493  0.00  0.00    +0.072 C 
ENDROOT
BRANCH   2   9
ATOM      9  C   LIG    1        1.207   2.302  -1.072  0.00  0.00    -0.043 A 
ATOM     10  C   LIG    1        0.730   3.595  -0.815  0.00  0.00    +0.007 A 
ATOM     11  C   LIG    1        0.102   4.326  -1.820  0.00  0.00    +0.038 A 
ATOM     12  C   LIG    1       -0.050   3.770  -3.088  0.00  0.00    +0.123 A 
ATOM     13  F   LIG    1       -0.660   4.481  -4.063  0.00  0.00    -0.205 F 
ATOM     14  C   LIG    1        0.422   2.489  -3.358  0.00  0.00    +0.038 A 
ATOM     15  C   LIG    1        1.050   1.759  -2.353  0.00  0.00    +0.007 A 
ENDBRANCH   2   9
BRANCH   1  16
ATOM     16  C   LIG    1       -0.276   0.092   0.523  0.00  0.00    +0.312 C 
ATOM     17  O   LIG    1       -0.839   1.086   0.990  0.00  0.00    -0.250 OA
BRANCH  16  19
ATOM     18  C   LIG    1       -2.304  -1.156   0.178  0.00  0.00    +0.280 C 
ATOM     19  O   LIG    1       -0.894  -1.022   0.076  0.00  0.00    -0.468 OA
ENDBRANCH  16  19
ENDBRANCH   1  16
BRANCH   5  20
ATOM     20  C   LIG    1        2.009  -0.458   3.970  0.00  0.00    +0.112 C 
BRANCH  20  21
ATOM     21  C   LIG    1        0.875  -1.397   4.337  0.00  0.00    -0.005 C 
ATOM     22  C   LIG    1        0.112  -1.272   5.434  0.00  0.00    +0.042 C 
ATOM     23  I   LIG    1       -1.473  -2.660   5.826  0.00  0.00    -0.053 I 
ENDBRANCH  20  21
ENDBRANCH   5  20
TORSDOF 5
