REMARK  Name = DB15151
REMARK                            x       y       z     vdW  Elec       q    Type
REMARK                         _______ _______ _______ _____ _____    ______ ____
ROOT
ATOM      1  C   LIG    1        2.078   0.649   1.149  0.00  0.00    +0.183 C 
ATOM      2  C   LIG    1        1.425   2.035   1.228  0.00  0.00    +0.163 A 
ATOM      3  N   LIG    1        0.698   2.651   0.325  0.00  0.00    -0.132 NA
ATOM      4  N   LIG    1        0.247   3.838   0.889  0.00  0.00    -0.134 NA
ATOM      5  C   LIG    1        0.726   3.896   2.106  0.00  0.00    +0.135 A 
ATOM      6  C   LIG    1        0.437   5.029   3.069  0.00  0.00    +0.088 C 
ATOM      7  N   LIG    1        1.509   2.791   2.380  0.00  0.00    -0.275 N 
ATOM      8  C   LIG    1        2.217   2.437   3.518  0.00  0.00    +0.097 A 
ATOM      9  S   LIG    1        3.140   3.543   4.473  0.00  0.00    -0.075 S 
ATOM     10  C   LIG    1        3.676   2.291   5.541  0.00  0.00    -0.008 A 
ATOM     11  C   LIG    1        3.151   1.045   5.173  0.00  0.00    -0.029 A 
ATOM     12  C   LIG    1        3.561  -0.241   5.878  0.00  0.00    +0.045 C 
ATOM     13  C   LIG    1        4.606   2.645   6.682  0.00  0.00    +0.052 C 
ATOM     14  C   LIG    1        2.310   1.122   4.024  0.00  0.00    +0.035 A 
ATOM     15  C   LIG    1        1.599  -0.033   3.396  0.00  0.00    +0.076 C 
ATOM     16  N   LIG    1        1.495  -0.262   2.135  0.00  0.00    -0.271 NA
ENDROOT
BRANCH  15  17
ATOM     17  C   LIG    1        0.936  -0.964   4.337  0.00  0.00    +0.001 A 
ATOM     18  C   LIG    1        0.995  -2.349   4.120  0.00  0.00    +0.011 A 
ATOM     19  C   LIG    1        0.357  -3.225   4.994  0.00  0.00    +0.020 A 
ATOM     20  C   LIG    1       -0.346  -2.724   6.086  0.00  0.00    +0.041 A 
ATOM     21 CL   LIG    1       -1.139  -3.812   7.167  0.00  0.00    -0.084 Cl
ATOM     22  C   LIG    1       -0.419  -1.351   6.310  0.00  0.00    +0.020 A 
ATOM     23  C   LIG    1        0.217  -0.473   5.437  0.00  0.00    +0.011 A 
ENDBRANCH  15  17
BRANCH   1  24
ATOM     24  C   LIG    1        2.063  -0.008  -0.269  0.00  0.00    +0.130 C 
BRANCH  24  27
ATOM     25  N   LIG    1       -0.415  -0.240  -0.214  0.00  0.00    -0.315 N 
ATOM     26  H   LIG    1       -0.365   0.353   0.602  0.00  0.00    +0.149 HD
ATOM     27  C   LIG    1        0.732  -0.541  -0.850  0.00  0.00    +0.215 C 
ATOM     28  O   LIG    1        0.766  -1.230  -1.870  0.00  0.00    -0.276 OA
BRANCH  25  29
ATOM     29  C   LIG    1       -1.744  -0.707  -0.594  0.00  0.00    +0.105 C 
BRANCH  29  30
ATOM     30  C   LIG    1       -2.041  -2.140  -0.105  0.00  0.00    +0.034 C 
BRANCH  30  31
ATOM     31  C   LIG    1       -3.470  -2.642  -0.402  0.00  0.00    +0.086 C 
BRANCH  31  37
ATOM     32  C   LIG    1       -6.693  -4.631   2.709  0.00  0.00    -0.096 C 
ATOM     33  N   LIG    1       -6.282  -3.338   1.978  0.00  0.00    +0.379 N 
ATOM     34  H   LIG    1       -6.925  -2.598   2.221  0.00  0.00    -0.082 HD
ATOM     35  C   LIG    1       -4.862  -2.898   2.400  0.00  0.00    -0.064 C 
ATOM     36  C   LIG    1       -4.502  -1.607   1.627  0.00  0.00    +0.066 C 
ATOM     37  N   LIG    1       -4.536  -1.805   0.169  0.00  0.00    -0.306 NA
ATOM     38  C   LIG    1       -5.882  -2.224  -0.246  0.00  0.00    +0.066 C 
ATOM     39  C   LIG    1       -6.337  -3.536   0.445  0.00  0.00    -0.064 C 
ENDBRANCH  31  37
ENDBRANCH  30  31
ENDBRANCH  29  30
ENDBRANCH  25  29
ENDBRANCH  24  27
ENDBRANCH   1  24
TORSDOF 7
