REMARK  Name = DB16063
REMARK                            x       y       z     vdW  Elec       q    Type
REMARK                         _______ _______ _______ _____ _____    ______ ____
ROOT
ATOM      1  O   LIG    1       -6.102   1.872   0.833  0.00  0.00    -0.274 OA
ATOM      2  C   LIG    1       -4.892   1.694   0.697  0.00  0.00    +0.235 C 
ATOM      3  C   LIG    1       -4.226   0.418   0.208  0.00  0.00    +0.077 C 
ATOM      4  C   LIG    1       -4.971  -0.713  -0.148  0.00  0.00    +0.014 C 
ATOM      5  C   LIG    1       -4.314  -1.870  -0.592  0.00  0.00    +0.002 C 
ATOM      6  C   LIG    1       -2.916  -1.914  -0.686  0.00  0.00    +0.021 C 
ATOM      7  C   LIG    1       -2.168  -0.789  -0.334  0.00  0.00    +0.054 C 
ATOM      8  N   LIG    1       -0.750  -0.782  -0.414  0.00  0.00    -0.287 NA
ATOM      9  H   LIG    1       -0.401  -1.528   0.188  0.00  0.00    +0.124 HD
ATOM     10  C   LIG    1       -0.159   0.323  -0.060  0.00  0.00    +0.119 C 
ATOM     11  N   LIG    1       -0.723   1.417   0.355  0.00  0.00    -0.273 NA
ATOM     12  H   LIG    1       -0.333   1.600   1.280  0.00  0.00    +0.126 HD
ATOM     13  C   LIG    1       -2.006   1.551   0.477  0.00  0.00    +0.130 C 
ATOM     14  N   LIG    1       -2.576   2.625   0.889  0.00  0.00    -0.217 NA
ATOM     15  H   LIG    1       -2.208   2.819   1.820  0.00  0.00    +0.146 HD
ATOM     16  C   LIG    1       -2.836   0.364   0.109  0.00  0.00    +0.054 C 
ATOM     17  N   LIG    1       -3.967   2.664   0.984  0.00  0.00    -0.249 N 
ATOM     18  H   LIG    1       -4.327   3.547   1.317  0.00  0.00    +0.169 HD
ENDROOT
BRANCH  10  19
ATOM     19  C   LIG    1        1.369   0.355  -0.156  0.00  0.00    +0.126 C 
BRANCH  19  20
ATOM     20  N   LIG    1        1.878   0.697  -1.493  0.00  0.00    -0.291 NA
ATOM     21  C   LIG    1        1.811  -0.424  -2.433  0.00  0.00    +0.120 C 
ATOM     22  C   LIG    1        2.924  -0.163  -3.417  0.00  0.00    -0.029 A 
ATOM     23  C   LIG    1        3.174  -0.673  -4.691  0.00  0.00    +0.005 A 
ATOM     24  C   LIG    1        4.327  -0.275  -5.372  0.00  0.00    +0.000 A 
ATOM     25  C   LIG    1        5.226   0.613  -4.775  0.00  0.00    +0.000 A 
ATOM     26  C   LIG    1        4.977   1.110  -3.493  0.00  0.00    +0.005 A 
ATOM     27  C   LIG    1        3.816   0.720  -2.824  0.00  0.00    -0.029 A 
ATOM     28  C   LIG    1        3.296   1.046  -1.446  0.00  0.00    +0.120 C 
ENDBRANCH  19  20
ENDBRANCH  10  19
TORSDOF 2
