REMARK  Name = DB16260
REMARK                            x       y       z     vdW  Elec       q    Type
REMARK                         _______ _______ _______ _____ _____    ______ ____
ROOT
ATOM      1  C   LIG    1        0.045  -0.092   0.128  0.00  0.00    -0.001 C 
ATOM      2  C   LIG    1       -0.453  -0.968   1.328  0.00  0.00    -0.026 C 
ATOM      3  C   LIG    1        0.465  -2.217   1.522  0.00  0.00    +0.012 C 
ATOM      4  C   LIG    1       -0.656  -0.198   2.663  0.00  0.00    +0.007 C 
ATOM      5  C   LIG    1       -1.388  -1.056   3.717  0.00  0.00    +0.005 C 
ATOM      6  C   LIG    1       -2.762  -1.592   3.210  0.00  0.00    +0.001 C 
ATOM      7  C   LIG    1       -3.523  -2.489   4.263  0.00  0.00    -0.026 C 
ATOM      8  C   LIG    1       -2.773  -3.830   4.524  0.00  0.00    +0.012 C 
ATOM      9  C   LIG    1       -3.695  -1.817   5.661  0.00  0.00    +0.010 C 
ATOM     10  C   LIG    1       -4.521  -0.520   5.631  0.00  0.00    +0.032 C 
ATOM     11  C   LIG    1       -5.927  -0.779   5.052  0.00  0.00    +0.115 C 
ATOM     12  C   LIG    1       -5.882  -1.537   3.708  0.00  0.00    +0.035 C 
ATOM     13  C   LIG    1       -4.961  -2.795   3.716  0.00  0.00    +0.000 C 
ATOM     14  C   LIG    1       -4.903  -3.470   2.322  0.00  0.00    +0.035 C 
ATOM     15  C   LIG    1       -4.075  -2.675   1.284  0.00  0.00    +0.118 C 
ATOM     16  C   LIG    1       -2.654  -2.282   1.800  0.00  0.00    +0.025 C 
ATOM     17  C   LIG    1       -1.882  -1.326   0.830  0.00  0.00    +0.001 C 
ATOM     18  C   LIG    1       -1.689  -1.711  -0.640  0.00  0.00    +0.005 C 
ATOM     19  C   LIG    1       -0.533  -0.819  -1.117  0.00  0.00    +0.004 C 
ENDROOT
BRANCH   1  20
ATOM     20  C   LIG    1        1.577   0.220   0.002  0.00  0.00    +0.000 C 
ATOM     21  C   LIG    1        2.180   0.870   1.270  0.00  0.00    +0.008 C 
BRANCH  20  22
ATOM     22  C   LIG    1        1.872   1.117  -1.248  0.00  0.00    +0.124 C 
BRANCH  22  23
ATOM     23  C   LIG    1        3.345   1.144  -1.729  0.00  0.00    +0.305 C 
ATOM     24  O   LIG    1        3.718   2.179  -2.326  0.00  0.00    -0.251 OA
BRANCH  23  25
ATOM     25  O   LIG    1        4.075   0.142  -1.543  0.00  0.00    -0.481 OA
ATOM     26  H   LIG    1        4.966   0.152  -1.831  0.00  0.00    +0.295 HD
ENDBRANCH  23  25
ENDBRANCH  22  23
ENDBRANCH  20  22
ENDBRANCH   1  20
BRANCH  11  27
ATOM     27  O   LIG    1       -6.645   0.431   4.923  0.00  0.00    -0.392 OA
ATOM     28  H   LIG    1       -6.185   0.994   4.296  0.00  0.00    +0.210 HD
ENDBRANCH  11  27
BRANCH  15  29
ATOM     29  O   LIG    1       -4.043  -3.401   0.071  0.00  0.00    -0.391 OA
ATOM     30  H   LIG    1       -3.411  -4.117   0.162  0.00  0.00    +0.210 HD
ENDBRANCH  15  29
TORSDOF 6
