REMARK  Name = DB16344
REMARK                            x       y       z     vdW  Elec       q    Type
REMARK                         _______ _______ _______ _____ _____    ______ ____
ROOT
ATOM      1  N   LIG    1        2.194  -0.846  -0.656  0.00  0.00    -0.210 N 
ATOM      2  C   LIG    1        2.702  -0.021  -1.632  0.00  0.00    +0.278 A 
ATOM      3  O   LIG    1        2.870   1.195  -1.498  0.00  0.00    -0.265 OA
ATOM      4  C   LIG    1        3.018  -0.776  -2.901  0.00  0.00    +0.072 A 
ATOM      5  C   LIG    1        3.541  -0.103  -4.013  0.00  0.00    +0.062 A 
ATOM      6  C   LIG    1        3.812  -0.824  -5.175  0.00  0.00    +0.136 A 
ATOM      7  O   LIG    1        4.375  -0.159  -6.241  0.00  0.00    -0.472 OA
ATOM      8  C   LIG    1        4.031  -0.700  -7.499  0.00  0.00    +0.342 C 
ATOM      9  N   LIG    1        4.207  -2.146  -7.558  0.00  0.00    -0.261 N 
ATOM     10  C   LIG    1        3.912  -2.962  -6.499  0.00  0.00    +0.253 C 
ATOM     11  O   LIG    1        3.975  -4.193  -6.551  0.00  0.00    -0.270 OA
ATOM     12  C   LIG    1        3.561  -2.196  -5.248  0.00  0.00    +0.081 A 
ATOM     13  C   LIG    1        3.069  -2.872  -4.123  0.00  0.00    +0.047 A 
ATOM     14  C   LIG    1        2.788  -2.154  -2.957  0.00  0.00    +0.101 A 
ATOM     15  N   LIG    1        2.275  -2.851  -1.860  0.00  0.00    -0.131 NA
ATOM     16  N   LIG    1        1.995  -2.214  -0.768  0.00  0.00    -0.062 NA
ENDROOT
BRANCH   9  17
ATOM     17  C   LIG    1        4.641  -2.745  -8.830  0.00  0.00    +0.080 C 
ATOM     18  C   LIG    1        3.708  -3.667  -9.597  0.00  0.00    +0.024 C 
ATOM     19  C   LIG    1        4.003  -2.289 -10.130  0.00  0.00    +0.024 C 
ENDBRANCH   9  17
BRANCH   1  20
ATOM     20  C   LIG    1        1.779  -0.241   0.625  0.00  0.00    +0.154 C 
BRANCH  20  21
ATOM     21  C   LIG    1        0.260   0.020   0.735  0.00  0.00    +0.058 C 
BRANCH  21  25
ATOM     22  F   LIG    1       -1.883   1.104  -3.550  0.00  0.00    -0.205 F 
ATOM     23  C   LIG    1       -1.318   1.529  -2.397  0.00  0.00    +0.124 A 
ATOM     24  C   LIG    1       -0.859   0.600  -1.462  0.00  0.00    +0.042 A 
ATOM     25  C   LIG    1       -0.267   1.034  -0.271  0.00  0.00    -0.043 A 
ATOM     26  C   LIG    1       -0.143   2.405  -0.021  0.00  0.00    +0.004 A 
ATOM     27  C   LIG    1       -0.606   3.333  -0.955  0.00  0.00    +0.003 A 
ATOM     28  C   LIG    1       -1.192   2.895  -2.143  0.00  0.00    +0.038 A 
ENDBRANCH  21  25
ENDBRANCH  20  21
ENDBRANCH   1  20
TORSDOF 4
