REMARK  Name = DB16084
REMARK                            x       y       z     vdW  Elec       q    Type
REMARK                         _______ _______ _______ _____ _____    ______ ____
ROOT
ATOM      1  C   LIG    1       -0.019  -0.000   0.012  0.00  0.00    +0.012 C 
ENDROOT
BRANCH   1   2
ATOM      2  C   LIG    1       -0.621   1.430   0.014  0.00  0.00    +0.120 C 
BRANCH   2   3
ATOM      3  C   LIG    1       -2.168   1.498  -0.014  0.00  0.00    +0.305 C 
ATOM      4  O   LIG    1       -2.666   2.645  -0.078  0.00  0.00    -0.251 OA
BRANCH   3   5
ATOM      5  O   LIG    1       -2.847   0.445   0.032  0.00  0.00    -0.481 OA
ATOM      6  H   LIG    1       -3.307   0.150  -0.729  0.00  0.00    +0.295 HD
ENDBRANCH   3   5
ENDBRANCH   2   3
ENDBRANCH   1   2
BRANCH   1   7
ATOM      7  C   LIG    1        1.521   0.002   0.010  0.00  0.00    +0.012 C 
BRANCH   7   8
ATOM      8  C   LIG    1        2.120  -1.429   0.013  0.00  0.00    +0.120 C 
BRANCH   8   9
ATOM      9  C   LIG    1        3.667  -1.499  -0.016  0.00  0.00    +0.305 C 
ATOM     10  O   LIG    1        4.163  -2.647  -0.080  0.00  0.00    -0.251 OA
BRANCH   9  11
ATOM     11  O   LIG    1        4.349  -0.448   0.030  0.00  0.00    -0.481 OA
ATOM     12  H   LIG    1        5.284  -0.495   0.012  0.00  0.00    +0.295 HD
ENDBRANCH   9  11
ENDBRANCH   8   9
ENDBRANCH   7   8
ENDBRANCH   1   7
TORSDOF 7
