REMARK  Name = DB16891
REMARK                            x       y       z     vdW  Elec       q    Type
REMARK                         _______ _______ _______ _____ _____    ______ ____
ROOT
ATOM      1  C   LIG    1       -2.337  -1.353   0.237  0.00  0.00    +0.157 A 
ATOM      2  N   LIG    1       -3.151  -0.313  -0.075  0.00  0.00    -0.213 NA
ATOM      3  C   LIG    1       -2.619   0.944  -0.077  0.00  0.00    +0.127 A 
ATOM      4  C   LIG    1       -1.274   1.140   0.285  0.00  0.00    +0.087 A 
ATOM      5  C   LIG    1       -0.497   0.019   0.594  0.00  0.00    +0.130 A 
ATOM      6  N   LIG    1       -1.024  -1.234   0.565  0.00  0.00    -0.213 NA
ENDROOT
BRANCH   3   7
ATOM      7  N   LIG    1       -3.484   2.006  -0.367  0.00  0.00    -0.319 N 
ATOM      8  C   LIG    1       -4.804   1.795  -1.001  0.00  0.00    +0.088 C 
ATOM      9  C   LIG    1       -4.713   1.755  -2.544  0.00  0.00    -0.060 C 
ATOM     10  N   LIG    1       -4.158   3.107  -3.039  0.00  0.00    +0.380 N 
ATOM     11  H   LIG    1       -4.798   3.836  -2.756  0.00  0.00    -0.082 HD
ATOM     12  C   LIG    1       -4.017   3.112  -4.573  0.00  0.00    -0.096 C 
ATOM     13  C   LIG    1       -2.796   3.365  -2.362  0.00  0.00    -0.060 C 
ATOM     14  C   LIG    1       -2.994   3.320  -0.829  0.00  0.00    +0.088 C 
ENDBRANCH   3   7
BRANCH   1  15
ATOM     15  C   LIG    1       -2.949  -2.696   0.195  0.00  0.00    +0.049 C 
ATOM     16  C   LIG    1       -2.312  -3.869   0.402  0.00  0.00    +0.011 C 
BRANCH  16  17
ATOM     17  C   LIG    1       -2.914  -5.219   0.371  0.00  0.00    -0.025 A 
ATOM     18  C   LIG    1       -4.301  -5.422   0.411  0.00  0.00    +0.008 A 
ATOM     19  C   LIG    1       -4.824  -6.712   0.371  0.00  0.00    +0.001 A 
ATOM     20  C   LIG    1       -3.965  -7.803   0.287  0.00  0.00    +0.000 A 
ATOM     21  C   LIG    1       -2.586  -7.616   0.246  0.00  0.00    +0.001 A 
ATOM     22  C   LIG    1       -2.063  -6.326   0.287  0.00  0.00    +0.008 A 
ENDBRANCH  16  17
ENDBRANCH   1  15
BRANCH   5  23
ATOM     23  N   LIG    1        0.851   0.224   0.935  0.00  0.00    -0.283 N 
ATOM     24  H   LIG    1        1.104   1.201   0.919  0.00  0.00    +0.155 HD
BRANCH  23  25
ATOM     25  C   LIG    1        1.825  -0.692   1.267  0.00  0.00    +0.146 A 
ATOM     26  C   LIG    1        1.775  -2.093   1.402  0.00  0.00    +0.068 A 
ATOM     27  C   LIG    1        3.046  -2.511   1.749  0.00  0.00    +0.035 A 
ATOM     28  C   LIG    1        3.652  -3.864   2.030  0.00  0.00    +0.065 C 
ATOM     29  N   LIG    1        3.760  -1.346   1.801  0.00  0.00    -0.280 N 
ATOM     30  H   LIG    1        4.742  -1.289   2.032  0.00  0.00    +0.189 HD
ATOM     31  N   LIG    1        3.040  -0.256   1.517  0.00  0.00    -0.158 NA
ENDBRANCH  23  25
ENDBRANCH   5  23
TORSDOF 5
