REMARK  Name = DB16321
REMARK                            x       y       z     vdW  Elec       q    Type
REMARK                         _______ _______ _______ _____ _____    ______ ____
ROOT
ATOM      1  C   LIG    1       -2.411  -0.162  -0.219  0.00  0.00    +0.025 A 
ATOM      2  N   LIG    1       -1.635  -1.254   0.200  0.00  0.00    -0.307 N 
ATOM      3  C   LIG    1       -0.247  -1.191   0.247  0.00  0.00    +0.264 A 
ATOM      4  O   LIG    1        0.445  -2.120   0.683  0.00  0.00    -0.267 OA
ATOM      5  C   LIG    1        0.373   0.053  -0.247  0.00  0.00    +0.101 A 
ATOM      6  C   LIG    1       -0.417   1.077  -0.663  0.00  0.00    +0.023 A 
ATOM      7  C   LIG    1       -1.865   1.011  -0.642  0.00  0.00    -0.030 A 
ATOM      8  C   LIG    1       -2.658   2.190  -1.195  0.00  0.00    +0.045 C 
ENDROOT
BRANCH   5   9
ATOM      9  C   LIG    1        1.827   0.199  -0.340  0.00  0.00    +0.250 C 
ATOM     10  N   LIG    1        2.311   1.431  -0.049  0.00  0.00    -0.296 N 
ATOM     11  H   LIG    1        1.638   2.123   0.243  0.00  0.00    +0.150 HD
ATOM     12  O   LIG    1        2.561  -0.738  -0.658  0.00  0.00    -0.270 OA
BRANCH  10  13
ATOM     13  C   LIG    1        3.721   1.902  -0.033  0.00  0.00    +0.132 C 
ATOM     14  C   LIG    1        4.588   0.985   0.923  0.00  0.00    +0.037 C 
ATOM     15  C   LIG    1        5.864   1.601   1.543  0.00  0.00    +0.003 C 
ATOM     16  C   LIG    1        5.637   3.012   2.097  0.00  0.00    +0.000 C 
ATOM     17  C   LIG    1        5.054   3.932   1.019  0.00  0.00    +0.003 C 
ATOM     18  C   LIG    1        3.721   3.391   0.465  0.00  0.00    +0.037 C 
BRANCH  13  19
ATOM     19  C   LIG    1        4.342   1.923  -1.495  0.00  0.00    +0.328 C 
ATOM     20  O   LIG    1        5.582   1.806  -1.645  0.00  0.00    -0.249 OA
BRANCH  19  21
ATOM     21  O   LIG    1        3.578   2.102  -2.476  0.00  0.00    -0.479 OA
ATOM     22  H   LIG    1        3.927   2.117  -3.345  0.00  0.00    +0.295 HD
ENDBRANCH  19  21
ENDBRANCH  13  19
ENDBRANCH  10  13
ENDBRANCH   5   9
BRANCH   1  24
ATOM     23  C   LIG    1       -4.612  -1.069  -1.254  0.00  0.00    +0.010 C 
ATOM     24  C   LIG    1       -3.939  -0.317  -0.094  0.00  0.00    +0.050 C 
ENDBRANCH   1  24
BRANCH   2  25
ATOM     25  C   LIG    1       -2.192  -2.587   0.570  0.00  0.00    +0.160 C 
BRANCH  25  26
ATOM     26  C   LIG    1       -2.093  -3.691  -0.489  0.00  0.00    -0.027 A 
ATOM     27  C   LIG    1       -1.903  -3.403  -1.847  0.00  0.00    +0.008 A 
ATOM     28  C   LIG    1       -1.797  -4.437  -2.773  0.00  0.00    +0.038 A 
ATOM     29  C   LIG    1       -1.876  -5.760  -2.344  0.00  0.00    +0.123 A 
ATOM     30  F   LIG    1       -1.775  -6.764  -3.244  0.00  0.00    -0.205 F 
ATOM     31  C   LIG    1       -2.057  -6.056  -0.995  0.00  0.00    +0.038 A 
ATOM     32  C   LIG    1       -2.162  -5.022  -0.069  0.00  0.00    +0.008 A 
ENDBRANCH  25  26
ENDBRANCH   2  25
TORSDOF 7
