REMARK  Name = DB16877
REMARK                            x       y       z     vdW  Elec       q    Type
REMARK                         _______ _______ _______ _____ _____    ______ ____
ROOT
ATOM      1  C   LIG    1       -0.825   1.666  -0.928  0.00  0.00    +0.155 C 
ATOM      2  N   LIG    1       -1.582   2.878  -1.032  0.00  0.00    -0.197 N 
ATOM      3  S   LIG    1       -1.456   4.158   0.191  0.00  0.00    +0.075 S 
ATOM      4  O   LIG    1       -0.310   5.011  -0.141  0.00  0.00    -0.150 OA
ATOM      5  O   LIG    1       -2.762   4.795   0.396  0.00  0.00    -0.150 OA
ATOM      6  C   LIG    1       -1.044   3.219   1.654  0.00  0.00    +0.119 A 
ATOM      7  C   LIG    1       -0.453   1.950   1.565  0.00  0.00    +0.045 A 
ATOM      8  C   LIG    1       -0.082   1.307   2.758  0.00  0.00    +0.013 A 
ATOM      9  C   LIG    1       -0.300   1.906   3.998  0.00  0.00    +0.001 A 
ATOM     10  C   LIG    1       -0.900   3.160   4.068  0.00  0.00    +0.002 A 
ATOM     11  C   LIG    1       -1.271   3.816   2.897  0.00  0.00    +0.029 A 
ATOM     12  C   LIG    1       -2.280   3.327  -2.272  0.00  0.00    +0.158 C 
ATOM     13  C   LIG    1       -0.278   1.265   0.255  0.00  0.00    +0.162 C 
ENDROOT
BRANCH   1  16
ATOM     14  N   LIG    1       -1.046  -0.430  -1.998  0.00  0.00    -0.265 N 
ATOM     15  H   LIG    1       -1.423  -0.693  -1.100  0.00  0.00    +0.157 HD
ATOM     16  C   LIG    1       -0.683   0.867  -2.144  0.00  0.00    +0.268 C 
ATOM     17  O   LIG    1       -0.273   1.359  -3.197  0.00  0.00    -0.268 OA
BRANCH  14  18
ATOM     18  C   LIG    1       -1.007  -1.466  -2.948  0.00  0.00    +0.125 A 
ATOM     19  N   LIG    1       -0.393  -1.316  -4.158  0.00  0.00    -0.240 NA
ATOM     20  C   LIG    1       -0.383  -2.369  -5.015  0.00  0.00    +0.113 A 
ATOM     21  C   LIG    1       -0.970  -3.597  -4.709  0.00  0.00    +0.020 A 
ATOM     22  C   LIG    1       -1.592  -3.745  -3.468  0.00  0.00    +0.005 A 
ATOM     23  C   LIG    1       -1.611  -2.672  -2.575  0.00  0.00    +0.044 A 
ENDBRANCH  14  18
ENDBRANCH   1  16
BRANCH  13  24
ATOM     24  O   LIG    1        0.499   0.146   0.316  0.00  0.00    -0.451 OA
BRANCH  24  25
ATOM     25  C   LIG    1        1.876   0.390   0.229  0.00  0.00    +0.367 C 
ATOM     26  C   LIG    1        2.574  -0.758   0.957  0.00  0.00    +0.100 C 
BRANCH  25  27
ATOM     27  O   LIG    1        2.285   0.388  -1.114  0.00  0.00    -0.394 OA
BRANCH  27  28
ATOM     28  C   LIG    1        3.416   1.071  -1.436  0.00  0.00    +0.513 C 
ATOM     29  O   LIG    1        4.163   1.679  -0.662  0.00  0.00    -0.203 OA
BRANCH  28  30
ATOM     30  O   LIG    1        3.571   0.971  -2.769  0.00  0.00    -0.434 OA
BRANCH  30  31
ATOM     31  C   LIG    1        4.656   1.613  -3.424  0.00  0.00    +0.232 C 
ATOM     32  C   LIG    1        4.574   1.335  -4.928  0.00  0.00    +0.048 C 
ENDBRANCH  30  31
ENDBRANCH  28  30
ENDBRANCH  27  28
ENDBRANCH  25  27
ENDBRANCH  24  25
ENDBRANCH  13  24
TORSDOF 8
