REMARK  Name = DB16249
REMARK                            x       y       z     vdW  Elec       q    Type
REMARK                         _______ _______ _______ _____ _____    ______ ____
ROOT
ATOM      1  C   LIG    1        1.339  -0.162  -0.442  0.00  0.00    -0.021 A 
ATOM      2  C   LIG    1        2.183   0.647  -1.209  0.00  0.00    +0.122 A 
ATOM      3  C   LIG    1        3.560   0.727  -0.934  0.00  0.00    -0.001 A 
ATOM      4  C   LIG    1        4.473   1.581  -1.831  0.00  0.00    +0.039 C 
ATOM      5  C   LIG    1        5.812   1.946  -1.177  0.00  0.00    +0.005 C 
ATOM      6  C   LIG    1        6.464   0.695  -0.590  0.00  0.00    +0.005 C 
ATOM      7  C   LIG    1        5.583   0.115   0.526  0.00  0.00    +0.037 C 
ATOM      8  C   LIG    1        4.098  -0.030   0.140  0.00  0.00    -0.020 A 
ATOM      9  C   LIG    1        3.244  -0.877   0.879  0.00  0.00    +0.035 A 
ATOM     10  C   LIG    1        1.881  -0.926   0.585  0.00  0.00    +0.028 A 
ENDROOT
BRANCH   2  11
ATOM     11  O   LIG    1        1.654   1.367  -2.254  0.00  0.00    -0.506 OA
ATOM     12  H   LIG    1        2.319   1.868  -2.733  0.00  0.00    +0.292 HD
ENDBRANCH   2  11
BRANCH   9  13
ATOM     13  N   LIG    1        3.767  -1.612   1.962  0.00  0.00    -0.314 N 
ATOM     14  H   LIG    1        4.645  -1.254   2.309  0.00  0.00    +0.152 HD
BRANCH  13  15
ATOM     15  C   LIG    1        3.301  -2.740   2.666  0.00  0.00    +0.042 A 
ATOM     16  C   LIG    1        3.727  -2.994   4.009  0.00  0.00    +0.022 A 
ATOM     17  C   LIG    1        4.598  -2.134   4.737  0.00  0.00    +0.013 A 
ATOM     18  C   LIG    1        4.967  -2.438   6.045  0.00  0.00    +0.021 A 
ATOM     19  C   LIG    1        4.490  -3.586   6.667  0.00  0.00    +0.043 A 
ATOM     20 CL   LIG    1        4.962  -3.941   8.289  0.00  0.00    -0.083 Cl
ATOM     21  C   LIG    1        3.635  -4.452   5.991  0.00  0.00    +0.048 A 
ATOM     22  C   LIG    1        3.242  -4.174   4.660  0.00  0.00    +0.074 A 
ATOM     23  N   LIG    1        2.410  -5.053   4.039  0.00  0.00    -0.255 NA
ATOM     24  C   LIG    1        2.046  -4.798   2.761  0.00  0.00    +0.113 A 
ATOM     25  C   LIG    1        2.465  -3.680   2.051  0.00  0.00    +0.043 A 
ENDBRANCH  13  15
ENDBRANCH   9  13
BRANCH   1  26
ATOM     26  C   LIG    1       -0.161  -0.253  -0.717  0.00  0.00    -0.042 C 
BRANCH  26  27
ATOM     27  N   LIG    1       -0.963   1.052  -0.519  0.00  0.00    +0.385 N 
ATOM     28  H   LIG    1       -0.552   1.760  -1.111  0.00  0.00    -0.085 HD
ATOM     29  H   LIG    1       -1.890   0.874  -0.878  0.00  0.00    -0.085 HD
BRANCH  27  31
ATOM     30  C   LIG    1       -2.216   2.756   0.750  0.00  0.00    -0.011 C 
ATOM     31  C   LIG    1       -1.141   1.657   0.897  0.00  0.00    -0.077 C 
ATOM     32  C   LIG    1       -1.627   0.566   1.878  0.00  0.00    -0.011 C 
ATOM     33  C   LIG    1        0.192   2.287   1.360  0.00  0.00    -0.011 C 
ENDBRANCH  27  31
ENDBRANCH  26  27
ENDBRANCH   1  26
TORSDOF 6
