REMARK  Name = DB16229
REMARK                            x       y       z     vdW  Elec       q    Type
REMARK                         _______ _______ _______ _____ _____    ______ ____
ROOT
ATOM      1  C   LIG    1        3.363   0.620   1.091  0.00  0.00    +0.125 A 
ATOM      2  C   LIG    1        3.840   1.356   2.178  0.00  0.00    +0.084 A 
ATOM      3  C   LIG    1        5.209   1.534   2.376  0.00  0.00    +0.129 A 
ATOM      4  F   LIG    1        5.652   2.253   3.432  0.00  0.00    -0.205 F 
ATOM      5  C   LIG    1        6.121   0.972   1.484  0.00  0.00    +0.065 A 
ATOM      6  C   LIG    1        5.663   0.230   0.392  0.00  0.00    +0.094 A 
ATOM      7  C   LIG    1        4.290   0.056   0.197  0.00  0.00    +0.072 A 
ENDROOT
BRANCH   6   8
ATOM      8  S   LIG    1        6.833  -0.488  -0.759  0.00  0.00    -0.006 S 
ATOM      9  O   LIG    1        6.168  -1.621  -1.415  0.00  0.00    -0.170 OA
ATOM     10  O   LIG    1        8.095  -0.688  -0.037  0.00  0.00    -0.170 OA
ATOM     11  C   LIG    1        7.081   0.880  -2.033  0.00  0.00    +0.200 C 
ENDBRANCH   6   8
BRANCH   1  12
ATOM     12  O   LIG    1        1.991   0.502   0.976  0.00  0.00    -0.494 OA
BRANCH  12  13
ATOM     13  C   LIG    1        1.440  -0.230  -0.118  0.00  0.00    +0.210 C 
BRANCH  13  14
ATOM     14  C   LIG    1       -0.096  -0.203  -0.058  0.00  0.00    -0.041 C 
BRANCH  14  15
ATOM     15  N   LIG    1       -0.602   1.249  -0.008  0.00  0.00    +0.381 N 
ATOM     16  H   LIG    1       -0.203   1.701   0.803  0.00  0.00    -0.086 HD
ATOM     17  H   LIG    1       -0.273   1.737  -0.829  0.00  0.00    -0.086 HD
BRANCH  15  18
ATOM     18  C   LIG    1       -2.132   1.368   0.059  0.00  0.00    -0.083 C 
BRANCH  18  20
ATOM     19  C   LIG    1       -4.040   3.061   0.152  0.00  0.00    +0.002 C 
ATOM     20  C   LIG    1       -2.522   2.853   0.086  0.00  0.00    -0.022 C 
ENDBRANCH  18  20
ENDBRANCH  15  18
ENDBRANCH  14  15
ENDBRANCH  13  14
ENDBRANCH  12  13
ENDBRANCH   1  12
TORSDOF 7
