REMARK  Name = DB16957
REMARK                            x       y       z     vdW  Elec       q    Type
REMARK                         _______ _______ _______ _____ _____    ______ ____
ROOT
ATOM      1  C   LIG    1       -0.433   1.433   0.000  0.00  0.00    +0.029 C 
ATOM      2  C   LIG    1        0.047  -0.035  -0.036  0.00  0.00    +0.035 C 
ATOM      3  C   LIG    1       -0.529  -0.732  -1.295  0.00  0.00    +0.029 C 
ATOM      4  C   LIG    1       -0.419  -0.758   1.253  0.00  0.00    +0.029 C 
ENDROOT
BRANCH   2   5
ATOM      5  N   LIG    1        1.516   0.027  -0.093  0.00  0.00    -0.199 NA
ATOM      6  H   LIG    1        1.853   0.473  -0.935  0.00  0.00    +0.154 HD
BRANCH   5   7
ATOM      7  O   LIG    1        2.040  -1.243  -0.156  0.00  0.00    -0.315 OA
ATOM      8  H   LIG    1        2.730  -1.191   0.510  0.00  0.00    +0.236 HD
ENDBRANCH   5   7
ENDBRANCH   2   5
TORSDOF 2
