REMARK  Name = DB16339
REMARK                            x       y       z     vdW  Elec       q    Type
REMARK                         _______ _______ _______ _____ _____    ______ ____
ROOT
ATOM      1  C   LIG    1        1.191   0.379   0.412  0.00  0.00    +0.130 C 
ENDROOT
BRANCH   1   3
ATOM      2  C   LIG    1       -0.646   2.061   0.737  0.00  0.00    +0.213 C 
ATOM      3  N   LIG    1       -0.199   0.798   0.615  0.00  0.00    -0.308 N 
ATOM      4  H   LIG    1       -0.880   0.052   0.637  0.00  0.00    +0.149 HD
ATOM      5  O   LIG    1        0.082   3.053   0.708  0.00  0.00    -0.276 OA
BRANCH   2   6
ATOM      6  C   LIG    1       -2.162   2.224   0.891  0.00  0.00    +0.096 C 
BRANCH   6   7
ATOM      7  C   LIG    1       -2.856   2.499  -0.461  0.00  0.00    +0.009 C 
BRANCH   7   8
ATOM      8  C   LIG    1       -4.334   2.071  -0.478  0.00  0.00    +0.000 C 
BRANCH   8   9
ATOM      9  C   LIG    1       -4.984   2.245  -1.861  0.00  0.00    +0.000 C 
BRANCH   9  10
ATOM     10  C   LIG    1       -6.390   1.621  -1.948  0.00  0.00    +0.000 C 
BRANCH  10  11
ATOM     11  C   LIG    1       -7.057   1.739  -3.335  0.00  0.00    +0.000 C 
BRANCH  11  12
ATOM     12  C   LIG    1       -6.260   1.151  -4.520  0.00  0.00    -0.000 C 
BRANCH  12  13
ATOM     13  C   LIG    1       -5.883  -0.337  -4.370  0.00  0.00    -0.000 C 
BRANCH  13  14
ATOM     14  C   LIG    1       -5.137  -0.885  -5.599  0.00  0.00    -0.000 C 
BRANCH  14  15
ATOM     15  C   LIG    1       -4.767  -2.377  -5.469  0.00  0.00    -0.000 C 
BRANCH  15  16
ATOM     16  C   LIG    1       -3.997  -2.952  -6.676  0.00  0.00    -0.000 C 
BRANCH  16  17
ATOM     17  C   LIG    1       -4.790  -2.915  -7.999  0.00  0.00    -0.000 C 
BRANCH  17  18
ATOM     18  C   LIG    1       -4.093  -3.606  -9.186  0.00  0.00    -0.000 C 
BRANCH  18  19
ATOM     19  C   LIG    1       -4.032  -5.143  -9.083  0.00  0.00    -0.000 C 
BRANCH  19  20
ATOM     20  C   LIG    1       -3.575  -5.799 -10.398  0.00  0.00    -0.000 C 
BRANCH  20  21
ATOM     21  C   LIG    1       -3.550  -7.337 -10.341  0.00  0.00    -0.000 C 
BRANCH  21  22
ATOM     22  C   LIG    1       -3.254  -7.968 -11.713  0.00  0.00    -0.000 C 
BRANCH  22  23
ATOM     23  C   LIG    1       -3.189  -9.504 -11.678  0.00  0.00    -0.000 C 
BRANCH  23  24
ATOM     24  C   LIG    1       -2.942 -10.118 -13.067  0.00  0.00    -0.000 C 
BRANCH  24  25
ATOM     25  C   LIG    1       -2.825 -11.652 -13.038  0.00  0.00    -0.000 C 
BRANCH  25  26
ATOM     26  C   LIG    1       -2.579 -12.260 -14.430  0.00  0.00    -0.000 C 
BRANCH  26  28
ATOM     27  C   LIG    1       -2.125 -14.391 -15.777  0.00  0.00    +0.004 C 
ATOM     28  C   LIG    1       -2.401 -13.787 -14.393  0.00  0.00    -0.003 C 
ENDBRANCH  26  28
ENDBRANCH  25  26
ENDBRANCH  24  25
ENDBRANCH  23  24
ENDBRANCH  22  23
ENDBRANCH  21  22
ENDBRANCH  20  21
ENDBRANCH  19  20
ENDBRANCH  18  19
ENDBRANCH  17  18
ENDBRANCH  16  17
ENDBRANCH  15  16
ENDBRANCH  14  15
ENDBRANCH  13  14
ENDBRANCH  12  13
ENDBRANCH  11  12
ENDBRANCH  10  11
ENDBRANCH   9  10
ENDBRANCH   8   9
ENDBRANCH   7   8
ENDBRANCH   6   7
ENDBRANCH   2   6
ENDBRANCH   1   3
BRANCH   1  29
ATOM     29  C   LIG    1        1.285  -0.985  -0.359  0.00  0.00    +0.165 C 
BRANCH  29  30
ATOM     30  O   LIG    1        2.651  -1.276  -0.614  0.00  0.00    -0.387 OA
ATOM     31  H   LIG    1        3.022  -0.569  -1.147  0.00  0.00    +0.210 HD
ENDBRANCH  29  30
BRANCH  29  32
ATOM     32  C   LIG    1        0.537  -1.098  -1.732  0.00  0.00    +0.145 C 
BRANCH  32  33
ATOM     33  O   LIG    1       -0.845  -0.803  -1.625  0.00  0.00    -0.389 OA
ATOM     34  H   LIG    1       -0.939   0.085  -1.271  0.00  0.00    +0.210 HD
ENDBRANCH  32  33
BRANCH  32  35
ATOM     35  C   LIG    1        0.656  -2.501  -2.386  0.00  0.00    +0.034 C 
BRANCH  35  36
ATOM     36  C   LIG    1        0.135  -2.588  -3.837  0.00  0.00    +0.003 C 
BRANCH  36  37
ATOM     37  C   LIG    1        0.266  -4.007  -4.420  0.00  0.00    +0.000 C 
BRANCH  37  38
ATOM     38  C   LIG    1       -0.040  -4.093  -5.927  0.00  0.00    +0.000 C 
BRANCH  38  39
ATOM     39  C   LIG    1        0.101  -5.528  -6.466  0.00  0.00    +0.000 C 
BRANCH  39  40
ATOM     40  C   LIG    1        0.050  -5.628  -8.002  0.00  0.00    -0.000 C 
BRANCH  40  41
ATOM     41  C   LIG    1        0.237  -7.075  -8.492  0.00  0.00    -0.000 C 
BRANCH  41  42
ATOM     42  C   LIG    1        0.369  -7.206 -10.019  0.00  0.00    -0.000 C 
BRANCH  42  43
ATOM     43  C   LIG    1        0.593  -8.665 -10.458  0.00  0.00    -0.000 C 
BRANCH  43  44
ATOM     44  C   LIG    1        0.754  -8.838 -11.978  0.00  0.00    -0.000 C 
BRANCH  44  45
ATOM     45  C   LIG    1        0.967 -10.308 -12.381  0.00  0.00    -0.000 C 
BRANCH  45  46
ATOM     46  C   LIG    1        1.091 -10.514 -13.901  0.00  0.00    -0.000 C 
BRANCH  46  47
ATOM     47  C   LIG    1        1.311 -11.989 -14.283  0.00  0.00    -0.003 C 
ATOM     48  C   LIG    1        1.369 -12.214 -15.800  0.00  0.00    +0.004 C 
ENDBRANCH  46  47
ENDBRANCH  45  46
ENDBRANCH  44  45
ENDBRANCH  43  44
ENDBRANCH  42  43
ENDBRANCH  41  42
ENDBRANCH  40  41
ENDBRANCH  39  40
ENDBRANCH  38  39
ENDBRANCH  37  38
ENDBRANCH  36  37
ENDBRANCH  35  36
ENDBRANCH  32  35
ENDBRANCH  29  32
ENDBRANCH   1  29
BRANCH   1  49
ATOM     49  C   LIG    1        1.935   0.380   1.774  0.00  0.00    +0.188 C 
BRANCH  49  50
ATOM     50  O   LIG    1        3.342   0.249   1.598  0.00  0.00    -0.347 OA
BRANCH  50  51
ATOM     51  C   LIG    1        4.080   0.053   2.773  0.00  0.00    +0.282 C 
ATOM     52  C   LIG    1        5.579   0.080   2.423  0.00  0.00    +0.201 C 
ATOM     53  C   LIG    1        5.969  -1.164   1.588  0.00  0.00    +0.179 C 
ATOM     54  C   LIG    1        5.494  -2.460   2.281  0.00  0.00    +0.176 C 
ATOM     55  C   LIG    1        3.990  -2.334   2.637  0.00  0.00    +0.169 C 
ATOM     56  O   LIG    1        3.748  -1.156   3.421  0.00  0.00    -0.341 OA
BRANCH  52  57
ATOM     57  O   LIG    1        5.952   1.300   1.806  0.00  0.00    -0.384 OA
ATOM     58  H   LIG    1        6.798   1.169   1.372  0.00  0.00    +0.210 HD
ENDBRANCH  52  57
BRANCH  53  59
ATOM     59  O   LIG    1        7.353  -1.190   1.280  0.00  0.00    -0.386 OA
ATOM     60  H   LIG    1        7.591  -2.085   1.026  0.00  0.00    +0.210 HD
ENDBRANCH  53  59
BRANCH  54  61
ATOM     61  O   LIG    1        6.280  -2.787   3.418  0.00  0.00    -0.387 OA
ATOM     62  H   LIG    1        6.078  -3.687   3.682  0.00  0.00    +0.210 HD
ENDBRANCH  54  61
BRANCH  55  63
ATOM     63  C   LIG    1        3.384  -3.558   3.364  0.00  0.00    +0.138 C 
BRANCH  63  64
ATOM     64  N   LIG    1        3.448  -4.807   2.602  0.00  0.00    -0.313 N 
ATOM     65  H   LIG    1        4.107  -5.498   2.929  0.00  0.00    +0.149 HD
ATOM     66  C   LIG    1        2.699  -5.094   1.522  0.00  0.00    +0.210 C 
ATOM     67  O   LIG    1        1.855  -4.333   1.049  0.00  0.00    -0.276 OA
ATOM     68  C   LIG    1        2.938  -6.453   0.871  0.00  0.00    +0.109 C 
ENDBRANCH  63  64
ENDBRANCH  55  63
ENDBRANCH  50  51
ENDBRANCH  49  50
ENDBRANCH   1  49
TORSDOF 48
