REMARK  Name = DB16277
REMARK                            x       y       z     vdW  Elec       q    Type
REMARK                         _______ _______ _______ _____ _____    ______ ____
ROOT
ATOM      1  C   LIG    1       -2.600   2.376  -0.003  0.00  0.00    +0.062 C 
ATOM      2  C   LIG    1       -1.923   1.099   0.017  0.00  0.00    +0.025 C 
ATOM      3  C   LIG    1       -0.506   0.932  -0.019  0.00  0.00    +0.016 C 
ATOM      4  C   LIG    1        0.095  -0.332  -0.011  0.00  0.00    +0.017 C 
ATOM      5  C   LIG    1       -0.714  -1.471   0.051  0.00  0.00    +0.010 C 
ATOM      6  C   LIG    1       -2.099  -1.373   0.100  0.00  0.00    +0.021 C 
ATOM      7  C   LIG    1       -2.699  -0.098   0.085  0.00  0.00    +0.050 C 
ATOM      8  N   LIG    1       -4.063   0.024   0.147  0.00  0.00    -0.303 NA
ATOM      9  H   LIG    1       -4.615  -0.821   0.200  0.00  0.00    +0.123 HD
ATOM     10  C   LIG    1       -4.712   1.194   0.148  0.00  0.00    +0.085 C 
ATOM     11  C   LIG    1       -4.014   2.399   0.070  0.00  0.00    +0.046 C 
ENDROOT
BRANCH  11  12
ATOM     12  C   LIG    1       -4.808   3.664   0.075  0.00  0.00    -0.031 A 
ATOM     13  C   LIG    1       -4.713   4.582  -0.980  0.00  0.00    +0.042 A 
ATOM     14  C   LIG    1       -5.450   5.766  -0.965  0.00  0.00    +0.126 A 
ATOM     15  F   LIG    1       -5.337   6.644  -1.987  0.00  0.00    -0.205 F 
ATOM     16  C   LIG    1       -6.301   6.044   0.103  0.00  0.00    +0.076 A 
ATOM     17  C   LIG    1       -6.415   5.136   1.154  0.00  0.00    +0.126 A 
ATOM     18  F   LIG    1       -7.241   5.402   2.190  0.00  0.00    -0.205 F 
ATOM     19  C   LIG    1       -5.674   3.954   1.138  0.00  0.00    +0.042 A 
ENDBRANCH  11  12
BRANCH   1  23
ATOM     20  C   LIG    1       -0.252   6.043  -0.108  0.00  0.00    -0.073 C 
ATOM     21  C   LIG    1       -0.982   5.570   1.163  0.00  0.00    -0.001 C 
ATOM     22  C   LIG    1       -1.213   4.044   1.162  0.00  0.00    +0.083 C 
ATOM     23  N   LIG    1       -1.918   3.589  -0.048  0.00  0.00    -0.294 NA
ATOM     24  C   LIG    1       -1.171   3.959  -1.264  0.00  0.00    +0.083 C 
ATOM     25  C   LIG    1       -0.944   5.483  -1.365  0.00  0.00    -0.001 C 
BRANCH  20  26
ATOM     26  N   LIG    1       -0.246   7.579  -0.161  0.00  0.00    +0.380 N 
ATOM     27  H   LIG    1        0.233   7.954   0.645  0.00  0.00    -0.090 HD
ATOM     28  H   LIG    1        0.225   7.897  -0.996  0.00  0.00    -0.090 HD
ATOM     29  H   LIG    1       -1.193   7.930  -0.169  0.00  0.00    -0.090 HD
ENDBRANCH  20  26
ENDBRANCH   1  23
BRANCH   4  30
ATOM     30  C   LIG    1        1.581  -0.456  -0.051  0.00  0.00    +0.003 A 
ATOM     31  C   LIG    1        2.345   0.246   0.890  0.00  0.00    +0.008 A 
ATOM     32  C   LIG    1        3.734   0.158   0.898  0.00  0.00    +0.002 A 
ATOM     33  C   LIG    1        4.386  -0.635  -0.041  0.00  0.00    +0.022 A 
ATOM     34  C   LIG    1        3.653  -1.342  -0.997  0.00  0.00    +0.093 A 
ATOM     35  C   LIG    1        2.247  -1.252  -1.007  0.00  0.00    +0.138 A 
BRANCH  34  36
ATOM     36  C   LIG    1        4.385  -2.155  -1.965  0.00  0.00    +0.103 C 
ATOM     37  N   LIG    1        4.963  -2.799  -2.732  0.00  0.00    -0.191 NA
ENDBRANCH  34  36
BRANCH  35  38
ATOM     38  O   LIG    1        1.515  -1.923  -1.961  0.00  0.00    -0.505 OA
ATOM     39  H   LIG    1        2.063  -2.423  -2.571  0.00  0.00    +0.292 HD
ENDBRANCH  35  38
ENDBRANCH   4  30
TORSDOF 6
