REMARK  Name = DB16853
REMARK                            x       y       z     vdW  Elec       q    Type
REMARK                         _______ _______ _______ _____ _____    ______ ____
ROOT
ATOM      1  C   LIG    1       -4.303   0.066  -0.140  0.00  0.00    +0.004 A 
ATOM      2  C   LIG    1       -4.915  -1.142  -0.096  0.00  0.00    +0.026 A 
ATOM      3  C   LIG    1       -6.350  -1.388  -0.127  0.00  0.00    +0.014 A 
ATOM      4  C   LIG    1       -6.867  -2.640  -0.073  0.00  0.00    +0.026 A 
ATOM      5  C   LIG    1       -6.054  -3.796   0.023  0.00  0.00    +0.041 A 
ATOM      6  N   LIG    1       -6.591  -5.043   0.083  0.00  0.00    -0.371 N 
ATOM      7  C   LIG    1       -4.654  -3.587   0.053  0.00  0.00    +0.072 A 
ATOM      8  C   LIG    1       -4.102  -2.349  -0.001  0.00  0.00    +0.138 A 
ATOM      9  O   LIG    1       -2.742  -2.318   0.051  0.00  0.00    -0.455 OA
ATOM     10  C   LIG    1       -2.103  -1.090  -0.012  0.00  0.00    +0.138 A 
ATOM     11  C   LIG    1       -0.710  -1.103   0.014  0.00  0.00    +0.070 A 
ATOM     12  C   LIG    1        0.031   0.091  -0.056  0.00  0.00    +0.033 A 
ATOM     13  C   LIG    1       -0.695   1.293  -0.154  0.00  0.00    +0.024 A 
ATOM     14  C   LIG    1       -2.089   1.309  -0.180  0.00  0.00    +0.014 A 
ATOM     15  C   LIG    1       -2.815   0.116  -0.104  0.00  0.00    +0.026 A 
ENDROOT
BRANCH   1  16
ATOM     16  C   LIG    1       -5.095   1.323  -0.233  0.00  0.00    -0.003 A 
ATOM     17  C   LIG    1       -5.212   2.099   0.927  0.00  0.00    +0.009 A 
ATOM     18  C   LIG    1       -5.943   3.284   0.927  0.00  0.00    +0.001 A 
ATOM     19  C   LIG    1       -6.568   3.714  -0.239  0.00  0.00    +0.001 A 
ATOM     20  C   LIG    1       -6.454   2.962  -1.406  0.00  0.00    +0.015 A 
ATOM     21  C   LIG    1       -5.716   1.768  -1.428  0.00  0.00    +0.067 A 
BRANCH  21  22
ATOM     22  C   LIG    1       -5.606   1.015  -2.719  0.00  0.00    +0.337 C 
ATOM     23  O   LIG    1       -6.659   0.531  -3.194  0.00  0.00    -0.245 OA
BRANCH  22  24
ATOM     24  O   LIG    1       -4.470   0.923  -3.238  0.00  0.00    -0.477 OA
ATOM     25  H   LIG    1       -4.359   0.460  -4.045  0.00  0.00    +0.295 HD
ENDBRANCH  22  24
ENDBRANCH  21  22
ENDBRANCH   1  16
BRANCH   6  26
ATOM     26  C   LIG    1       -8.076  -5.296   0.079  0.00  0.00    +0.113 C 
ATOM     27  C   LIG    1       -8.636  -5.307  -1.354  0.00  0.00    +0.027 C 
ENDBRANCH   6  26
BRANCH   6  28
ATOM     28  C   LIG    1       -5.752  -6.292   0.163  0.00  0.00    +0.113 C 
ATOM     29  C   LIG    1       -5.309  -6.576   1.608  0.00  0.00    +0.027 C 
ENDBRANCH   6  28
BRANCH  12  30
ATOM     30  N   LIG    1        1.458   0.082  -0.037  0.00  0.00    -0.330 N 
BRANCH  30  31
ATOM     31  C   LIG    1        2.227   1.332   0.006  0.00  0.00    +0.102 C 
ATOM     32  C   LIG    1        2.272   1.990   1.395  0.00  0.00    +0.024 C 
ENDBRANCH  30  31
BRANCH  30  33
ATOM     33  C   LIG    1        2.211  -1.169   0.135  0.00  0.00    +0.102 C 
ATOM     34  C   LIG    1        2.275  -1.668   1.587  0.00  0.00    +0.024 C 
ENDBRANCH  30  33
ENDBRANCH  12  30
TORSDOF 8
