REMARK  Name = DB16831
REMARK                            x       y       z     vdW  Elec       q    Type
REMARK                         _______ _______ _______ _____ _____    ______ ____
ROOT
ATOM      1  C   LIG    1        1.546  -0.416   0.186  0.00  0.00    +0.132 C 
ENDROOT
BRANCH   1   2
ATOM      2  C   LIG    1        2.116   0.349   1.394  0.00  0.00    -0.010 A 
ATOM      3  C   LIG    1        1.621   0.063   2.671  0.00  0.00    +0.026 A 
ATOM      4  C   LIG    1        2.102   0.763   3.769  0.00  0.00    +0.112 A 
ATOM      5  N   LIG    1        3.044   1.728   3.683  0.00  0.00    -0.255 NA
ATOM      6  C   LIG    1        3.555   2.028   2.458  0.00  0.00    +0.071 A 
ATOM      7  C   LIG    1        4.544   3.039   2.391  0.00  0.00    +0.028 A 
ATOM      8  C   LIG    1        5.109   3.388   1.170  0.00  0.00    +0.002 A 
ATOM      9  C   LIG    1        4.714   2.747   0.003  0.00  0.00    +0.001 A 
ATOM     10  C   LIG    1        3.744   1.749   0.033  0.00  0.00    +0.010 A 
ATOM     11  C   LIG    1        3.130   1.361   1.261  0.00  0.00    +0.006 A 
ENDBRANCH   1   2
BRANCH   1  20
ATOM     12  N   LIG    1       -0.214   1.412  -0.195  0.00  0.00    +0.384 N 
ATOM     13  H   LIG    1        0.257   1.900   0.555  0.00  0.00    -0.081 HD
ATOM     14  C   LIG    1        0.276   1.945  -1.570  0.00  0.00    -0.078 C 
ATOM     15  C   LIG    1       -0.477   1.206  -2.713  0.00  0.00    -0.015 C 
ATOM     16  C   LIG    1       -1.458   0.132  -2.171  0.00  0.00    -0.009 C 
ATOM     17  C   LIG    1       -2.478   0.874  -1.244  0.00  0.00    -0.003 C 
ATOM     18  C   LIG    1       -0.615  -0.842  -1.298  0.00  0.00    -0.009 C 
ATOM     19  C   LIG    1       -1.744   1.678  -0.115  0.00  0.00    -0.071 C 
ATOM     20  C   LIG    1        0.035  -0.124  -0.067  0.00  0.00    -0.035 C 
BRANCH  17  21
ATOM     21  C   LIG    1       -3.483  -0.102  -0.642  0.00  0.00    -0.033 C 
ATOM     22  C   LIG    1       -4.799  -0.109  -0.907  0.00  0.00    +0.004 C 
ENDBRANCH  17  21
ENDBRANCH   1  20
BRANCH   1  23
ATOM     23  O   LIG    1        1.697  -1.814   0.352  0.00  0.00    -0.389 OA
ATOM     24  H   LIG    1        2.635  -2.018   0.387  0.00  0.00    +0.210 HD
ENDBRANCH   1  23
TORSDOF 4
