REMARK  Name = DB16052
REMARK                            x       y       z     vdW  Elec       q    Type
REMARK                         _______ _______ _______ _____ _____    ______ ____
ROOT
ATOM      1  C   LIG    1        1.954   0.370   0.342  0.00  0.00    +0.283 C 
ATOM      2  C   LIG    1        2.509  -0.561   1.441  0.00  0.00    +0.208 C 
ATOM      3  C   LIG    1        3.936  -1.023   1.025  0.00  0.00    +0.179 C 
ATOM      4  C   LIG    1        3.946  -1.596  -0.414  0.00  0.00    +0.177 C 
ATOM      5  C   LIG    1        3.244  -0.610  -1.382  0.00  0.00    +0.178 C 
ATOM      6  O   LIG    1        1.933  -0.332  -0.875  0.00  0.00    -0.341 OA
ENDROOT
BRANCH   3   7
ATOM      7  O   LIG    1        4.528  -1.939   1.928  0.00  0.00    -0.386 OA
ATOM      8  H   LIG    1        4.313  -1.668   2.824  0.00  0.00    +0.210 HD
ENDBRANCH   3   7
BRANCH   4   9
ATOM      9  O   LIG    1        3.371  -2.894  -0.485  0.00  0.00    -0.386 OA
ATOM     10  H   LIG    1        2.474  -2.847  -0.146  0.00  0.00    +0.210 HD
ENDBRANCH   4   9
BRANCH   1  11
ATOM     11  O   LIG    1        0.657   0.743   0.707  0.00  0.00    -0.340 OA
BRANCH  11  12
ATOM     12  C   LIG    1        0.106   1.954   0.158  0.00  0.00    +0.183 C 
BRANCH  12  13
ATOM     13  C   LIG    1       -0.181   1.849  -1.381  0.00  0.00    +0.181 C 
BRANCH  13  14
ATOM     14  O   LIG    1        1.032   2.011  -2.106  0.00  0.00    -0.386 OA
ATOM     15  H   LIG    1        1.327   2.920  -2.005  0.00  0.00    +0.210 HD
ENDBRANCH  13  14
BRANCH  13  16
ATOM     16  C   LIG    1       -1.237   2.850  -1.952  0.00  0.00    +0.208 C 
BRANCH  16  17
ATOM     17  C   LIG    1       -1.589   2.590  -3.431  0.00  0.00    +0.257 C 
ATOM     18  O   LIG    1       -1.479   3.447  -4.309  0.00  0.00    -0.298 OA
ENDBRANCH  16  17
BRANCH  16  19
ATOM     19  O   LIG    1       -0.812   4.197  -1.783  0.00  0.00    -0.382 OA
ATOM     20  H   LIG    1       -1.492   4.778  -2.132  0.00  0.00    +0.210 HD
ENDBRANCH  16  19
ENDBRANCH  13  16
ENDBRANCH  12  13
BRANCH  12  21
ATOM     21  C   LIG    1       -1.144   2.283   1.027  0.00  0.00    +0.171 C 
BRANCH  21  22
ATOM     22  O   LIG    1       -0.730   2.583   2.350  0.00  0.00    -0.387 OA
ATOM     23  H   LIG    1       -1.497   2.865   2.853  0.00  0.00    +0.210 HD
ENDBRANCH  21  22
BRANCH  21  24
ATOM     24  C   LIG    1       -2.211   1.162   1.047  0.00  0.00    +0.189 C 
BRANCH  24  25
ATOM     25  O   LIG    1       -3.408   1.599   1.661  0.00  0.00    -0.392 OA
ATOM     26  H   LIG    1       -3.265   1.651   2.609  0.00  0.00    +0.210 HD
ENDBRANCH  24  25
ENDBRANCH  21  24
ENDBRANCH  12  21
ENDBRANCH  11  12
ENDBRANCH   1  11
BRANCH   2  27
ATOM     27  O   LIG    1        2.489   0.161   2.678  0.00  0.00    -0.338 OA
BRANCH  27  28
ATOM     28  C   LIG    1        2.377  -0.578   3.868  0.00  0.00    +0.282 C 
ATOM     29  C   LIG    1        2.562   0.380   5.060  0.00  0.00    +0.201 C 
ATOM     30  C   LIG    1        1.349   1.331   5.191  0.00  0.00    +0.179 C 
ATOM     31  C   LIG    1        0.032   0.528   5.227  0.00  0.00    +0.174 C 
ATOM     32  C   LIG    1       -0.011  -0.444   4.023  0.00  0.00    +0.149 C 
ATOM     33  C   LIG    1       -1.264  -1.336   3.986  0.00  0.00    +0.041 C 
ATOM     34  O   LIG    1        1.156  -1.275   3.965  0.00  0.00    -0.343 OA
BRANCH  29  35
ATOM     35  O   LIG    1        3.801   1.062   4.989  0.00  0.00    -0.384 OA
ATOM     36  H   LIG    1        3.703   1.808   4.392  0.00  0.00    +0.210 HD
ENDBRANCH  29  35
BRANCH  30  37
ATOM     37  O   LIG    1        1.468   2.216   6.294  0.00  0.00    -0.386 OA
ATOM     38  H   LIG    1        1.532   1.694   7.098  0.00  0.00    +0.210 HD
ENDBRANCH  30  37
BRANCH  31  39
ATOM     39  O   LIG    1       -0.157  -0.146   6.462  0.00  0.00    -0.387 OA
ATOM     40  H   LIG    1       -0.282   0.511   7.152  0.00  0.00    +0.210 HD
ENDBRANCH  31  39
ENDBRANCH  27  28
ENDBRANCH   2  27
BRANCH   5  41
ATOM     41  C   LIG    1        3.117  -1.100  -2.840  0.00  0.00    +0.190 C 
BRANCH  41  42
ATOM     42  O   LIG    1        4.387  -1.275  -3.436  0.00  0.00    -0.392 OA
ATOM     43  H   LIG    1        4.263  -1.583  -4.337  0.00  0.00    +0.210 HD
ENDBRANCH  41  42
ENDBRANCH   5  41
TORSDOF 20
