REMARK  Name = DB16212
REMARK                            x       y       z     vdW  Elec       q    Type
REMARK                         _______ _______ _______ _____ _____    ______ ____
ROOT
ATOM      1  C   LIG    1        1.654   0.199   0.074  0.00  0.00    -0.036 A 
ATOM      2  C   LIG    1        2.355   0.683  -1.037  0.00  0.00    +0.008 A 
ATOM      3  C   LIG    1        3.747   0.672  -1.045  0.00  0.00    +0.049 A 
ATOM      4  C   LIG    1        4.445   0.162   0.050  0.00  0.00    +0.157 A 
ATOM      5  C   LIG    1        3.753  -0.299   1.169  0.00  0.00    +0.049 A 
ATOM      6  C   LIG    1        2.361  -0.290   1.178  0.00  0.00    +0.008 A 
ENDROOT
BRANCH   1   8
ATOM      7  C   LIG    1       -0.519   1.495  -0.338  0.00  0.00    +0.022 C 
ATOM      8  C   LIG    1        0.113   0.142   0.070  0.00  0.00    +0.103 C 
BRANCH   8   9
ATOM      9  C   LIG    1       -0.497  -1.052  -0.724  0.00  0.00    +0.239 C 
ATOM     10  N   LIG    1        0.313  -1.911  -1.303  0.00  0.00    -0.190 N 
ATOM     11  H   LIG    1        1.286  -1.781  -1.232  0.00  0.00    +0.176 HD
ATOM     12  O   LIG    1       -1.731  -1.114  -0.740  0.00  0.00    -0.274 OA
BRANCH  10  13
ATOM     13  S   LIG    1       -0.245  -3.140  -2.104  0.00  0.00    +0.042 S 
ATOM     14  O   LIG    1       -0.927  -2.756  -3.345  0.00  0.00    -0.155 OA
ATOM     15  O   LIG    1       -0.918  -4.127  -1.252  0.00  0.00    -0.155 OA
ATOM     16  C   LIG    1        1.336  -3.999  -2.673  0.00  0.00    +0.218 C 
ENDBRANCH  10  13
ENDBRANCH   8   9
ENDBRANCH   1   8
BRANCH   4  17
ATOM     17  O   LIG    1        5.816   0.135   0.049  0.00  0.00    -0.339 OA
BRANCH  17  18
ATOM     18  S   LIG    1        6.615  -1.008  -0.884  0.00  0.00    +0.222 S 
ATOM     19  O   LIG    1        8.053  -0.847  -0.646  0.00  0.00    -0.128 OA
ATOM     20  O   LIG    1        6.078  -0.952  -2.250  0.00  0.00    -0.128 OA
BRANCH  18  21
ATOM     21  C   LIG    1        6.026  -2.608  -0.040  0.00  0.00    +0.556 C 
ATOM     22  F   LIG    1        4.739  -2.799  -0.327  0.00  0.00    -0.148 F 
ATOM     23  F   LIG    1        6.210  -2.482   1.274  0.00  0.00    -0.148 F 
ATOM     24  F   LIG    1        6.759  -3.614  -0.516  0.00  0.00    -0.148 F 
ENDBRANCH  18  21
ENDBRANCH  17  18
ENDBRANCH   4  17
TORSDOF 6
