REMARK  Name = DB16929
REMARK                            x       y       z     vdW  Elec       q    Type
REMARK                         _______ _______ _______ _____ _____    ______ ____
ROOT
ATOM      1  C   LIG    1       -0.068  -0.018   0.000  0.00  0.00    +0.338 C 
ATOM      2  O   LIG    1       -0.690   1.070   0.000  0.00  0.00    -0.248 OA
ENDROOT
BRANCH   1   3
ATOM      3  C   LIG    1        1.472   0.032   0.000  0.00  0.00    +0.279 C 
ATOM      4 CL   LIG    1        2.164   0.815  -1.449  0.00  0.00    -0.092 Cl
ATOM      5 CL   LIG    1        2.164   0.815   1.449  0.00  0.00    -0.092 Cl
ENDBRANCH   1   3
BRANCH   1   6
ATOM      6  O   LIG    1       -0.614  -1.146   0.000  0.00  0.00    -0.479 OA
ATOM      7  H   LIG    1       -0.917  -1.519   0.804  0.00  0.00    +0.295 HD
ENDBRANCH   1   6
TORSDOF 2
