REMARK  Name = DB16446
REMARK                            x       y       z     vdW  Elec       q    Type
REMARK                         _______ _______ _______ _____ _____    ______ ____
ROOT
ATOM      1  C   LIG    1        1.380   0.508   0.362  0.00  0.00    -0.063 C 
ATOM      2  C   LIG    1        2.191  -0.657   0.889  0.00  0.00    +0.003 C 
ATOM      3  C   LIG    1        2.063  -0.430  -0.604  0.00  0.00    -0.009 C 
ENDROOT
BRANCH   2   4
ATOM      4  C   LIG    1        3.544  -0.486   1.557  0.00  0.00    -0.046 A 
ATOM      5  C   LIG    1        3.704   0.454   2.576  0.00  0.00    +0.007 A 
ATOM      6  C   LIG    1        4.946   0.608   3.187  0.00  0.00    +0.046 A 
ATOM      7  C   LIG    1        6.034  -0.172   2.791  0.00  0.00    +0.121 A 
ATOM      8  C   LIG    1        5.863  -1.120   1.770  0.00  0.00    +0.046 A 
ATOM      9  C   LIG    1        4.622  -1.277   1.159  0.00  0.00    +0.007 A 
BRANCH   7  10
ATOM     10  O   LIG    1        7.226   0.057   3.452  0.00  0.00    -0.487 OA
BRANCH  10  11
ATOM     11  C   LIG    1        8.385  -0.687   3.082  0.00  0.00    +0.264 C 
BRANCH  11  12
ATOM     12  C   LIG    1        9.556  -0.277   3.962  0.00  0.00    -0.010 A 
ATOM     13  C   LIG    1        9.420  -0.292   5.354  0.00  0.00    +0.007 A 
ATOM     14  C   LIG    1       10.493   0.076   6.162  0.00  0.00    +0.000 A 
ATOM     15  C   LIG    1       11.699   0.456   5.577  0.00  0.00    +0.000 A 
ATOM     16  C   LIG    1       11.843   0.470   4.191  0.00  0.00    +0.000 A 
ATOM     17  C   LIG    1       10.771   0.101   3.382  0.00  0.00    +0.007 A 
ENDBRANCH  11  12
ENDBRANCH  10  11
ENDBRANCH   7  10
ENDBRANCH   2   4
BRANCH   1  18
ATOM     18  N   LIG    1       -0.147   0.473   0.504  0.00  0.00    +0.387 N 
ATOM     19  H   LIG    1       -0.466  -0.478   0.380  0.00  0.00    -0.085 HD
ATOM     20  H   LIG    1       -0.396   0.762   1.440  0.00  0.00    -0.085 HD
BRANCH  18  21
ATOM     21  C   LIG    1       -0.865   1.379  -0.512  0.00  0.00    +0.017 C 
BRANCH  21  24
ATOM     22  C   LIG    1       -4.393   1.788  -0.733  0.00  0.00    +0.305 A 
ATOM     23  O   LIG    1       -3.138   2.060  -1.167  0.00  0.00    -0.412 OA
ATOM     24  C   LIG    1       -2.371   1.321  -0.325  0.00  0.00    +0.202 A 
ATOM     25  N   LIG    1       -3.089   0.652   0.551  0.00  0.00    -0.113 NA
ATOM     26  N   LIG    1       -4.419   0.961   0.281  0.00  0.00    -0.093 NA
BRANCH  22  27
ATOM     27  N   LIG    1       -5.436   2.383  -1.377  0.00  0.00    -0.312 N 
ATOM     28  H   LIG    1       -5.292   3.006  -2.158  0.00  0.00    +0.147 HD
ATOM     29  H   LIG    1       -6.392   2.218  -1.096  0.00  0.00    +0.147 HD
ENDBRANCH  22  27
ENDBRANCH  21  24
ENDBRANCH  18  21
ENDBRANCH   1  18
TORSDOF 8
