REMARK  Name = DB16888
REMARK                            x       y       z     vdW  Elec       q    Type
REMARK                         _______ _______ _______ _____ _____    ______ ____
ROOT
ATOM      1  N   LIG    1        0.010   0.016   0.197  0.00  0.00    -0.342 N 
ATOM      2  C   LIG    1       -0.866  -1.060   0.097  0.00  0.00    +0.050 A 
ATOM      3  C   LIG    1       -0.610  -2.433   0.047  0.00  0.00    +0.028 A 
ATOM      4  C   LIG    1       -1.704  -3.282  -0.055  0.00  0.00    +0.021 A 
ATOM      5  C   LIG    1       -3.016  -2.813  -0.107  0.00  0.00    +0.064 A 
ATOM      6  C   LIG    1       -3.304  -1.427  -0.060  0.00  0.00    +0.081 A 
ATOM      7  C   LIG    1       -2.201  -0.540   0.042  0.00  0.00    +0.013 A 
ATOM      8  C   LIG    1       -2.066   0.889   0.105  0.00  0.00    +0.028 A 
ATOM      9  C   LIG    1       -0.726   1.179   0.181  0.00  0.00    +0.087 A 
ENDROOT
BRANCH   6  10
ATOM     10  C   LIG    1       -4.761  -0.925  -0.121  0.00  0.00    +0.419 C 
ATOM     11  F   LIG    1       -5.335  -1.324  -1.258  0.00  0.00    -0.166 F 
ATOM     12  F   LIG    1       -4.865   0.402  -0.072  0.00  0.00    -0.166 F 
ATOM     13  F   LIG    1       -5.455  -1.414   0.908  0.00  0.00    -0.166 F 
ENDBRANCH   6  10
BRANCH   1  14
ATOM     14  C   LIG    1        1.478  -0.056   0.232  0.00  0.00    +0.105 C 
ATOM     15  C   LIG    1        2.033   0.768   1.412  0.00  0.00    +0.032 C 
BRANCH  14  16
ATOM     16  C   LIG    1        2.087   0.391  -1.117  0.00  0.00    +0.190 C 
BRANCH  16  17
ATOM     17  S   LIG    1        1.642  -0.805  -2.519  0.00  0.00    -0.032 S 
ATOM     18  C   LIG    1        2.698  -0.207  -3.960  0.00  0.00    +0.194 C 
ATOM     19  O   LIG    1        0.236  -0.595  -2.879  0.00  0.00    -0.175 OA
ATOM     20  O   LIG    1        2.108  -2.143  -2.143  0.00  0.00    -0.175 OA
ENDBRANCH  16  17
ENDBRANCH  14  16
ENDBRANCH   1  14
BRANCH   5  21
ATOM     21  C   LIG    1       -4.063  -3.830  -0.211  0.00  0.00    +0.100 C 
ATOM     22  N   LIG    1       -4.890  -4.635  -0.294  0.00  0.00    -0.191 NA
ENDBRANCH   5  21
TORSDOF 5
