REMARK  Name = DB16226
REMARK                            x       y       z     vdW  Elec       q    Type
REMARK                         _______ _______ _______ _____ _____    ______ ____
ROOT
ATOM      1  S   LIG    1       -3.037  -1.163   0.067  0.00  0.00    -0.002 S 
ATOM      2  O   LIG    1       -2.287  -1.600   1.248  0.00  0.00    -0.169 OA
ATOM      3  O   LIG    1       -4.322  -1.797  -0.248  0.00  0.00    -0.169 OA
ATOM      4  C   LIG    1       -3.335   0.708   0.131  0.00  0.00    +0.181 C 
ATOM      5  C   LIG    1       -2.192   1.600   0.722  0.00  0.00    +0.017 C 
ATOM      6  C   LIG    1       -0.843   1.482  -0.105  0.00  0.00    +0.134 C 
ATOM      7  C   LIG    1       -0.132   0.080  -0.257  0.00  0.00    +0.080 C 
ATOM      8  C   LIG    1       -0.663  -0.801  -1.416  0.00  0.00    -0.011 A 
ATOM      9  C   LIG    1        0.102  -1.050  -2.569  0.00  0.00    +0.029 A 
ATOM     10  C   LIG    1       -0.384  -1.769  -3.674  0.00  0.00    +0.030 A 
ATOM     11  C   LIG    1       -1.701  -2.240  -3.603  0.00  0.00    +0.025 A 
ATOM     12  C   LIG    1       -2.483  -2.019  -2.475  0.00  0.00    +0.029 A 
ATOM     13  C   LIG    1       -1.972  -1.325  -1.376  0.00  0.00    +0.092 A 
ENDROOT
BRANCH   7  14
ATOM     14  C   LIG    1        1.409   0.186  -0.206  0.00  0.00    -0.037 A 
ATOM     15  C   LIG    1        2.098   1.163  -0.935  0.00  0.00    +0.008 A 
ATOM     16  C   LIG    1        3.486   1.243  -0.875  0.00  0.00    +0.046 A 
ATOM     17  C   LIG    1        4.213   0.347  -0.076  0.00  0.00    +0.121 A 
ATOM     18  C   LIG    1        3.525  -0.616   0.661  0.00  0.00    +0.046 A 
ATOM     19  C   LIG    1        2.137  -0.697   0.601  0.00  0.00    +0.008 A 
BRANCH  17  20
ATOM     20  O   LIG    1        5.591   0.345   0.036  0.00  0.00    -0.487 OA
BRANCH  20  21
ATOM     21  C   LIG    1        6.354   1.281  -0.725  0.00  0.00    +0.264 C 
BRANCH  21  22
ATOM     22  C   LIG    1        7.846   1.045  -0.524  0.00  0.00    -0.010 A 
ATOM     23  C   LIG    1        8.350  -0.251  -0.384  0.00  0.00    +0.007 A 
ATOM     24  C   LIG    1        9.718  -0.454  -0.223  0.00  0.00    +0.002 A 
ATOM     25  C   LIG    1       10.588   0.638  -0.195  0.00  0.00    -0.063 A 
ATOM     26  C   LIG    1       10.087   1.932  -0.354  0.00  0.00    +0.002 A 
ATOM     27  C   LIG    1        8.720   2.135  -0.515  0.00  0.00    +0.007 A 
BRANCH  25  28
ATOM     28  C   LIG    1       12.091   0.414  -0.051  0.00  0.00    -0.039 C 
BRANCH  28  29
ATOM     29  N   LIG    1       12.659   0.418   1.395  0.00  0.00    +0.385 N 
ATOM     30  C   LIG    1       12.422   1.771   2.123  0.00  0.00    -0.059 C 
ATOM     31  C   LIG    1       13.059   1.709   3.549  0.00  0.00    +0.066 C 
ATOM     32  N   LIG    1       13.701   0.410   3.823  0.00  0.00    -0.308 NA
ATOM     33  C   LIG    1       14.755   0.183   2.820  0.00  0.00    +0.066 C 
ATOM     34  C   LIG    1       12.691  -0.657   3.699  0.00  0.00    +0.066 C 
ATOM     35  C   LIG    1       14.196   0.177   1.361  0.00  0.00    -0.059 C 
ATOM     36  C   LIG    1       12.039  -0.700   2.279  0.00  0.00    -0.059 C 
ENDBRANCH  28  29
ENDBRANCH  25  28
ENDBRANCH  21  22
ENDBRANCH  20  21
ENDBRANCH  17  20
ENDBRANCH   7  14
BRANCH  10  37
ATOM     37  N   LIG    1        0.423  -1.996  -4.825  0.00  0.00    -0.336 N 
ATOM     38  C   LIG    1        1.847  -1.659  -4.810  0.00  0.00    +0.129 C 
ATOM     39  C   LIG    1       -0.041  -2.883  -5.891  0.00  0.00    +0.129 C 
ENDBRANCH  10  37
BRANCH   6  40
ATOM     40  O   LIG    1       -0.975   2.054  -1.397  0.00  0.00    -0.390 OA
ATOM     41  H   LIG    1       -0.109   2.081  -1.810  0.00  0.00    +0.210 HD
ENDBRANCH   6  40
BRANCH   5  42
ATOM     42  C   LIG    1       -2.673   3.106   0.737  0.00  0.00    +0.011 C 
BRANCH  42  43
ATOM     43  C   LIG    1       -3.493   3.651  -0.462  0.00  0.00    +0.000 C 
BRANCH  43  44
ATOM     44  C   LIG    1       -3.790   5.157  -0.341  0.00  0.00    -0.003 C 
ATOM     45  C   LIG    1       -4.611   5.702  -1.518  0.00  0.00    +0.004 C 
ENDBRANCH  43  44
ENDBRANCH  42  43
ENDBRANCH   5  42
BRANCH   5  46
ATOM     46  C   LIG    1       -1.882   1.248   2.226  0.00  0.00    +0.011 C 
BRANCH  46  47
ATOM     47  C   LIG    1       -3.089   1.007   3.170  0.00  0.00    +0.000 C 
BRANCH  47  48
ATOM     48  C   LIG    1       -2.698   0.744   4.638  0.00  0.00    -0.003 C 
ATOM     49  C   LIG    1       -1.944  -0.576   4.865  0.00  0.00    +0.004 C 
ENDBRANCH  47  48
ENDBRANCH  46  47
ENDBRANCH   5  46
TORSDOF 14
