REMARK  Name = DB16829
REMARK                            x       y       z     vdW  Elec       q    Type
REMARK                         _______ _______ _______ _____ _____    ______ ____
ROOT
ATOM      1  C   LIG    1       -0.037  -0.025   0.133  0.00  0.00    +0.111 C 
ATOM      2  C   LIG    1       -0.501  -0.597  -1.230  0.00  0.00    -0.034 C 
ATOM      3  C   LIG    1        0.243  -0.136  -2.481  0.00  0.00    +0.042 C 
ATOM      4  C   LIG    1       -1.583  -1.402  -1.356  0.00  0.00    +0.048 C 
ATOM      5  C   LIG    1       -2.421  -1.842  -0.251  0.00  0.00    +0.157 C 
ATOM      6  O   LIG    1       -3.362  -2.614  -0.419  0.00  0.00    -0.293 OA
ATOM      7  C   LIG    1       -2.120  -1.196   1.109  0.00  0.00    +0.088 C 
ATOM      8  C   LIG    1       -0.603  -0.912   1.334  0.00  0.00    +0.008 C 
ATOM      9  C   LIG    1       -0.488  -0.152   2.683  0.00  0.00    +0.015 C 
ATOM     10  C   LIG    1        0.131  -2.286   1.435  0.00  0.00    +0.015 C 
ENDROOT
BRANCH   1  11
ATOM     11  O   LIG    1       -0.586   1.286   0.207  0.00  0.00    -0.380 OA
ATOM     12  H   LIG    1       -0.232   1.804  -0.519  0.00  0.00    +0.211 HD
ENDBRANCH   1  11
BRANCH   1  13
ATOM     13  C   LIG    1        1.501   0.014   0.203  0.00  0.00    +0.012 C 
ATOM     14  C   LIG    1        2.282   1.083   0.468  0.00  0.00    +0.002 C 
BRANCH  14  15
ATOM     15  C   LIG    1        3.748   1.065   0.511  0.00  0.00    -0.044 C 
ATOM     16  C   LIG    1        4.501  -0.207   0.132  0.00  0.00    +0.044 C 
ATOM     17  C   LIG    1        4.478   2.157   0.862  0.00  0.00    +0.094 C 
BRANCH  17  18
ATOM     18  C   LIG    1        3.979   3.551   1.312  0.00  0.00    +0.330 C 
ATOM     19  O   LIG    1        4.563   4.502   0.747  0.00  0.00    -0.246 OA
BRANCH  18  20
ATOM     20  O   LIG    1        3.134   3.560   2.237  0.00  0.00    -0.478 OA
ATOM     21  H   LIG    1        2.783   2.753   2.559  0.00  0.00    +0.295 HD
ENDBRANCH  18  20
ENDBRANCH  17  18
ENDBRANCH  14  15
ENDBRANCH   1  13
TORSDOF 5
