REMARK  Name = DB16189
REMARK                            x       y       z     vdW  Elec       q    Type
REMARK                         _______ _______ _______ _____ _____    ______ ____
ROOT
ATOM      1  C   LIG    1        1.524   0.156  -0.040  0.00  0.00    +0.198 A 
ATOM      2  N   LIG    1        2.164   1.276   0.113  0.00  0.00    -0.195 NA
ATOM      3  C   LIG    1        3.527   1.232   0.193  0.00  0.00    +0.186 A 
ATOM      4  N   LIG    1        4.327   2.275   0.331  0.00  0.00    -0.216 NA
ATOM      5  C   LIG    1        5.539   1.767   0.357  0.00  0.00    +0.202 A 
ATOM      6  N   LIG    1        5.575   0.394   0.252  0.00  0.00    -0.323 N 
ATOM      7  C   LIG    1        4.251   0.041   0.128  0.00  0.00    +0.153 A 
ATOM      8  C   LIG    1        3.586  -1.244  -0.060  0.00  0.00    +0.279 A 
ATOM      9  O   LIG    1        4.082  -2.363  -0.164  0.00  0.00    -0.265 OA
ATOM     10  N   LIG    1        2.228  -1.036  -0.118  0.00  0.00    -0.293 N 
ATOM     11  H   LIG    1        1.686  -1.879  -0.239  0.00  0.00    +0.172 HD
ENDROOT
BRANCH   1  12
ATOM     12  N   LIG    1        0.106   0.065  -0.127  0.00  0.00    -0.311 N 
ATOM     13  H   LIG    1       -0.262  -0.646  -0.743  0.00  0.00    +0.149 HD
BRANCH  12  14
ATOM     14  C   LIG    1       -0.711   1.274  -0.107  0.00  0.00    +0.139 C 
BRANCH  14  19
ATOM     15 CL   LIG    1       -6.580  -0.172   0.126  0.00  0.00    -0.082 Cl
ATOM     16  C   LIG    1       -4.902   0.239   0.030  0.00  0.00    +0.059 A 
ATOM     17  C   LIG    1       -4.180   0.404   1.213  0.00  0.00    +0.022 A 
ATOM     18  C   LIG    1       -2.826   0.736   1.170  0.00  0.00    +0.007 A 
ATOM     19  C   LIG    1       -2.182   0.901  -0.059  0.00  0.00    -0.029 A 
ATOM     20  C   LIG    1       -2.907   0.742  -1.244  0.00  0.00    +0.026 A 
ATOM     21  C   LIG    1       -4.263   0.410  -1.206  0.00  0.00    +0.060 A 
ATOM     22 CL   LIG    1       -5.118   0.218  -2.697  0.00  0.00    -0.082 Cl
ENDBRANCH  14  19
ENDBRANCH  12  14
ENDBRANCH   1  12
BRANCH   6  23
ATOM     23  C   LIG    1        6.759  -0.458   0.256  0.00  0.00    +0.139 C 
BRANCH  23  24
ATOM     24  C   LIG    1        6.818  -1.320   1.538  0.00  0.00    +0.106 C 
BRANCH  24  25
ATOM     25  N   LIG    1        7.885  -2.325   1.494  0.00  0.00    -0.296 NA
ATOM     26  C   LIG    1        7.718  -3.293   2.586  0.00  0.00    +0.112 C 
ATOM     27  C   LIG    1        8.859  -4.332   2.608  0.00  0.00    +0.175 C 
ATOM     28  O   LIG    1       10.117  -3.670   2.668  0.00  0.00    -0.377 OA
ATOM     29  C   LIG    1       10.332  -2.820   1.547  0.00  0.00    +0.175 C 
ATOM     30  C   LIG    1        9.234  -1.737   1.481  0.00  0.00    +0.112 C 
ENDBRANCH  24  25
ENDBRANCH  23  24
ENDBRANCH   6  23
TORSDOF 6
