REMARK  Name = DB16851
REMARK                            x       y       z     vdW  Elec       q    Type
REMARK                         _______ _______ _______ _____ _____    ______ ____
ROOT
ATOM      1  C   LIG    1       -2.120  -1.167   0.039  0.00  0.00    +0.071 A 
ATOM      2  N   LIG    1       -0.764  -1.282   0.105  0.00  0.00    -0.198 NA
ATOM      3  C   LIG    1       -0.052  -0.119   0.121  0.00  0.00    +0.318 A 
ATOM      4  N   LIG    1       -0.581   1.131   0.081  0.00  0.00    -0.203 NA
ATOM      5  C   LIG    1       -1.936   1.210   0.014  0.00  0.00    +0.118 A 
ATOM      6  C   LIG    1       -2.756   0.079  -0.014  0.00  0.00    +0.045 A 
ENDROOT
BRANCH   1   7
ATOM      7  C   LIG    1       -2.936  -2.458  -0.020  0.00  0.00    +0.195 C 
BRANCH   7  11
ATOM      8  C   LIG    1       -4.635  -4.026  -4.839  0.00  0.00    +0.017 A 
ATOM      9  C   LIG    1       -4.039  -3.636  -3.631  0.00  0.00    +0.039 A 
ATOM     10  S   LIG    1       -4.776  -3.155  -2.111  0.00  0.00    -0.070 S 
ATOM     11  C   LIG    1       -3.169  -2.926  -1.446  0.00  0.00    +0.102 A 
ATOM     12  N   LIG    1       -2.187  -3.187  -2.270  0.00  0.00    -0.242 NA
ATOM     13  C   LIG    1       -2.629  -3.581  -3.492  0.00  0.00    +0.079 A 
ATOM     14  C   LIG    1       -1.803  -3.918  -4.575  0.00  0.00    +0.029 A 
ATOM     15  C   LIG    1       -2.406  -4.304  -5.774  0.00  0.00    +0.002 A 
ATOM     16  C   LIG    1       -3.794  -4.356  -5.903  0.00  0.00    +0.001 A 
ENDBRANCH   7  11
BRANCH   7  17
ATOM     17  C   LIG    1       -2.338  -3.539   0.788  0.00  0.00    +0.079 C 
ATOM     18  N   LIG    1       -1.871  -4.388   1.421  0.00  0.00    -0.195 NA
ENDBRANCH   7  17
ENDBRANCH   1   7
BRANCH   3  19
ATOM     19  O   LIG    1        1.329  -0.155   0.172  0.00  0.00    -0.458 OA
BRANCH  19  20
ATOM     20  C   LIG    1        1.999  -1.417   0.186  0.00  0.00    +0.268 C 
BRANCH  20  21
ATOM     21  C   LIG    1        3.505  -1.207   0.129  0.00  0.00    -0.010 A 
ATOM     22  C   LIG    1        4.346  -1.964   0.949  0.00  0.00    +0.007 A 
ATOM     23  C   LIG    1        5.725  -1.781   0.890  0.00  0.00    +0.005 A 
ATOM     24  C   LIG    1        6.268  -0.834   0.018  0.00  0.00    -0.033 A 
ATOM     25  C   LIG    1        5.429  -0.094  -0.819  0.00  0.00    +0.005 A 
ATOM     26  C   LIG    1        4.051  -0.277  -0.760  0.00  0.00    +0.007 A 
BRANCH  24  27
ATOM     27  C   LIG    1        7.780  -0.675  -0.085  0.00  0.00    +0.119 C 
BRANCH  27  28
ATOM     28  N   LIG    1        8.409  -1.761  -0.845  0.00  0.00    -0.294 NA
ATOM     29  C   LIG    1        8.080  -1.714  -2.278  0.00  0.00    +0.113 C 
ATOM     30  C   LIG    1        8.820  -2.816  -3.064  0.00  0.00    +0.175 C 
ATOM     31  O   LIG    1       10.222  -2.723  -2.834  0.00  0.00    -0.377 OA
ATOM     32  C   LIG    1       10.555  -2.869  -1.458  0.00  0.00    +0.175 C 
ATOM     33  C   LIG    1        9.861  -1.768  -0.626  0.00  0.00    +0.113 C 
ENDBRANCH  27  28
ENDBRANCH  24  27
ENDBRANCH  20  21
ENDBRANCH  19  20
ENDBRANCH   3  19
TORSDOF 8
