REMARK  Name = DB16349
REMARK                            x       y       z     vdW  Elec       q    Type
REMARK                         _______ _______ _______ _____ _____    ______ ____
ROOT
ATOM      1  N   LIG    1        1.563   0.001   0.030  0.00  0.00    -0.282 NA
ATOM      2  C   LIG    1        2.079   0.655  -1.194  0.00  0.00    +0.121 C 
ATOM      3  C   LIG    1        1.706   2.135  -1.235  0.00  0.00    -0.020 A 
ATOM      4  C   LIG    1        1.597   2.943  -2.373  0.00  0.00    +0.059 A 
ATOM      5  C   LIG    1        1.235   4.255  -2.056  0.00  0.00    +0.170 A 
ATOM      6  S   LIG    1        1.091   4.513  -0.349  0.00  0.00    -0.056 S 
ATOM      7  C   LIG    1        1.475   2.845  -0.054  0.00  0.00    -0.001 A 
ATOM      8  C   LIG    1        1.499   2.192   1.320  0.00  0.00    +0.058 C 
ATOM      9  C   LIG    1        2.082   0.753   1.194  0.00  0.00    +0.091 C 
ENDROOT
BRANCH   1  10
ATOM     10  C   LIG    1        0.088  -0.200   0.019  0.00  0.00    +0.198 C 
BRANCH  10  11
ATOM     11  C   LIG    1       -0.438  -0.945  -1.226  0.00  0.00    -0.001 A 
ATOM     12  C   LIG    1       -1.478  -0.341  -1.948  0.00  0.00    +0.007 A 
ATOM     13  C   LIG    1       -2.006  -0.946  -3.086  0.00  0.00    +0.000 A 
ATOM     14  C   LIG    1       -1.501  -2.168  -3.523  0.00  0.00    +0.001 A 
ATOM     15  C   LIG    1       -0.469  -2.783  -2.819  0.00  0.00    +0.020 A 
ATOM     16  C   LIG    1        0.067  -2.185  -1.676  0.00  0.00    +0.046 A 
ATOM     17 CL   LIG    1        1.341  -3.024  -0.856  0.00  0.00    -0.083 Cl
ENDBRANCH  10  11
BRANCH  10  18
ATOM     18  C   LIG    1       -0.486  -0.932   1.259  0.00  0.00    +0.329 C 
ATOM     19  O   LIG    1        0.185  -1.715   1.938  0.00  0.00    -0.249 OA
BRANCH  18  21
ATOM     20  C   LIG    1       -2.480  -1.158   2.588  0.00  0.00    +0.280 C 
ATOM     21  O   LIG    1       -1.771  -0.590   1.497  0.00  0.00    -0.467 OA
ENDBRANCH  18  21
ENDBRANCH  10  18
ENDBRANCH   1  10
BRANCH   5  22
ATOM     22  O   LIG    1        1.049   5.353  -2.865  0.00  0.00    -0.419 OA
BRANCH  22  23
ATOM     23  C   LIG    1        0.627   5.218  -4.154  0.00  0.00    +0.310 C 
ATOM     24  O   LIG    1        0.261   4.187  -4.721  0.00  0.00    -0.251 OA
ATOM     25  C   LIG    1        0.617   6.555  -4.886  0.00  0.00    +0.136 C 
ENDBRANCH  22  23
ENDBRANCH   5  22
TORSDOF 6
