REMARK  Name = DB16950
REMARK                            x       y       z     vdW  Elec       q    Type
REMARK                         _______ _______ _______ _____ _____    ______ ____
ROOT
ATOM      1  C   LIG    1       -2.079   1.228  -0.001  0.00  0.00    +0.000 A 
ATOM      2  C   LIG    1       -2.774  -0.006  -0.003  0.00  0.00    +0.124 A 
ATOM      3  C   LIG    1       -2.090  -1.246  -0.002  0.00  0.00    +0.000 A 
ATOM      4  C   LIG    1       -0.686  -1.212   0.001  0.00  0.00    +0.017 A 
ATOM      5  C   LIG    1        0.037  -0.019   0.004  0.00  0.00    +0.002 A 
ATOM      6  C   LIG    1       -0.675   1.182   0.002  0.00  0.00    +0.017 A 
ENDROOT
BRANCH   5   7
ATOM      7  C   LIG    1        1.545  -0.041   0.014  0.00  0.00    +0.078 A 
ATOM      8  N   LIG    1        2.237   1.091   0.010  0.00  0.00    -0.246 NA
ATOM      9  C   LIG    1        3.540   0.932   0.027  0.00  0.00    +0.062 A 
ATOM     10  S   LIG    1        4.033  -0.730   0.053  0.00  0.00    -0.082 S 
ATOM     11  C   LIG    1        2.358  -1.180   0.032  0.00  0.00    +0.075 A 
BRANCH   9  12
ATOM     12  C   LIG    1        4.508   2.097   0.042  0.00  0.00    -0.022 C 
BRANCH  12  13
ATOM     13  N   LIG    1        4.802   2.520  -1.402  0.00  0.00    +0.382 N 
ATOM     14  H   LIG    1        5.218   1.753  -1.912  0.00  0.00    -0.090 HD
ATOM     15  H   LIG    1        3.947   2.796  -1.865  0.00  0.00    -0.090 HD
ATOM     16  H   LIG    1        5.443   3.301  -1.413  0.00  0.00    -0.090 HD
ENDBRANCH  12  13
ENDBRANCH   9  12
ENDBRANCH   5   7
BRANCH   1  18
ATOM     17  C   LIG    1       -3.698   2.757  -1.274  0.00  0.00    +0.015 C 
ATOM     18  C   LIG    1       -2.824   2.606  -0.001  0.00  0.00    -0.009 C 
ATOM     19  C   LIG    1       -3.699   2.756   1.271  0.00  0.00    +0.015 C 
ATOM     20  C   LIG    1       -1.860   3.828  -0.001  0.00  0.00    +0.015 C 
ENDBRANCH   1  18
BRANCH   3  21
ATOM     21  C   LIG    1       -2.847  -2.617  -0.002  0.00  0.00    -0.009 C 
ATOM     22  C   LIG    1       -3.721  -2.761  -1.276  0.00  0.00    +0.015 C 
ATOM     23  C   LIG    1       -1.894  -3.848  -0.001  0.00  0.00    +0.015 C 
ATOM     24  C   LIG    1       -3.722  -2.760   1.272  0.00  0.00    +0.015 C 
ENDBRANCH   3  21
BRANCH   2  25
ATOM     25  O   LIG    1       -4.145  -0.001  -0.004  0.00  0.00    -0.506 OA
ATOM     26  H   LIG    1       -4.516  -0.886  -0.005  0.00  0.00    +0.292 HD
ENDBRANCH   2  25
TORSDOF 6
