REMARK  Name = DB16343
REMARK                            x       y       z     vdW  Elec       q    Type
REMARK                         _______ _______ _______ _____ _____    ______ ____
ROOT
ATOM      1  N   LIG    1       -1.838   4.641  -1.246  0.00  0.00    -0.303 N 
ATOM      2  C   LIG    1       -0.543   4.082  -1.633  0.00  0.00    +0.078 C 
ATOM      3  C   LIG    1        0.031   3.313  -0.409  0.00  0.00    +0.054 C 
ATOM      4  C   LIG    1       -0.912   2.207   0.152  0.00  0.00    +0.122 C 
ATOM      5  C   LIG    1       -2.408   2.615   0.003  0.00  0.00    +0.054 C 
ATOM      6  C   LIG    1       -0.894   3.172  -2.823  0.00  0.00    +0.024 C 
ATOM      7  C   LIG    1       -2.357   2.779  -2.581  0.00  0.00    +0.024 C 
ATOM      8  C   LIG    1       -2.718   3.474  -1.257  0.00  0.00    +0.078 C 
ENDROOT
BRANCH   1  13
ATOM      9  C   LIG    1       -2.728   9.780   1.976  0.00  0.00    +0.063 A 
ATOM     10  C   LIG    1       -1.677   9.186   1.247  0.00  0.00    +0.032 A 
ATOM     11  C   LIG    1       -1.885   7.949   0.625  0.00  0.00    +0.044 A 
ATOM     12  S   LIG    1       -0.778   6.979  -0.336  0.00  0.00    -0.052 S 
ATOM     13  C   LIG    1       -2.059   5.792  -0.517  0.00  0.00    +0.162 A 
ATOM     14  N   LIG    1       -3.193   6.087   0.061  0.00  0.00    -0.222 NA
ATOM     15  C   LIG    1       -3.131   7.281   0.712  0.00  0.00    +0.115 A 
ATOM     16  C   LIG    1       -4.181   7.866   1.433  0.00  0.00    +0.151 A 
ATOM     17  F   LIG    1       -5.386   7.259   1.538  0.00  0.00    -0.203 F 
ATOM     18  C   LIG    1       -3.960   9.098   2.049  0.00  0.00    +0.055 A 
BRANCH   9  19
ATOM     19  C   LIG    1       -2.536  11.119   2.663  0.00  0.00    +0.337 C 
ATOM     20  O   LIG    1       -1.424  11.693   2.569  0.00  0.00    -0.245 OA
BRANCH  19  21
ATOM     21  O   LIG    1       -3.492  11.613   3.307  0.00  0.00    -0.477 OA
ATOM     22  H   LIG    1       -3.595  11.417   4.217  0.00  0.00    +0.295 HD
ENDBRANCH  19  21
ENDBRANCH   9  19
ENDBRANCH   1  13
BRANCH   4  23
ATOM     23  O   LIG    1       -0.729   0.991  -0.578  0.00  0.00    -0.372 OA
BRANCH  23  24
ATOM     24  C   LIG    1        0.014  -0.039   0.072  0.00  0.00    +0.201 C 
BRANCH  24  25
ATOM     25  C   LIG    1        1.474   0.340   0.249  0.00  0.00    +0.048 A 
ATOM     26  C   LIG    1        2.444   0.589  -0.737  0.00  0.00    +0.122 A 
ATOM     27  N   LIG    1        3.615   0.898  -0.223  0.00  0.00    -0.078 NA
ATOM     28  O   LIG    1        3.452   0.857   1.157  0.00  0.00    -0.358 OA
ATOM     29  C   LIG    1        2.167   0.523   1.434  0.00  0.00    +0.146 A 
BRANCH  26  30
ATOM     30  C   LIG    1        2.260   0.553  -2.220  0.00  0.00    +0.046 A 
ATOM     31  C   LIG    1        1.755  -0.618  -2.796  0.00  0.00    +0.014 A 
ATOM     32  C   LIG    1        1.558  -0.703  -4.172  0.00  0.00    +0.001 A 
ATOM     33  C   LIG    1        1.865   0.384  -4.984  0.00  0.00    +0.004 A 
ATOM     34  C   LIG    1        2.366   1.556  -4.422  0.00  0.00    +0.046 A 
ATOM     35  C   LIG    1        2.567   1.660  -3.034  0.00  0.00    +0.139 A 
BRANCH  35  36
ATOM     36  O   LIG    1        3.032   2.806  -2.409  0.00  0.00    -0.405 OA
BRANCH  36  37
ATOM     37  C   LIG    1        3.272   4.003  -3.148  0.00  0.00    +0.575 C 
ATOM     38  F   LIG    1        2.166   4.444  -3.750  0.00  0.00    -0.133 F 
ATOM     39  F   LIG    1        4.262   3.847  -4.029  0.00  0.00    -0.133 F 
ATOM     40  F   LIG    1        3.651   4.935  -2.276  0.00  0.00    -0.133 F 
ENDBRANCH  36  37
ENDBRANCH  35  36
ENDBRANCH  26  30
BRANCH  29  41
ATOM     41  C   LIG    1        1.778   0.439   2.897  0.00  0.00    +0.058 C 
ATOM     42  C   LIG    1        2.752  -0.082   3.925  0.00  0.00    +0.012 C 
ATOM     43  C   LIG    1        2.376   1.388   3.907  0.00  0.00    +0.012 C 
ENDBRANCH  29  41
ENDBRANCH  24  25
ENDBRANCH  23  24
ENDBRANCH   4  23
TORSDOF 10
