REMARK  Name = DB16036
REMARK                            x       y       z     vdW  Elec       q    Type
REMARK                         _______ _______ _______ _____ _____    ______ ____
ROOT
ATOM      1  C   LIG    1        0.240  -0.134   0.117  0.00  0.00    +0.404 C 
ATOM      2  N   LIG    1        1.109  -0.682  -0.847  0.00  0.00    -0.271 N 
ATOM      3  C   LIG    1        2.432  -0.054  -1.012  0.00  0.00    +0.092 C 
ATOM      4  C   LIG    1        2.313   1.034  -2.108  0.00  0.00    -0.059 C 
ATOM      5  N   LIG    1        1.767   0.408  -3.415  0.00  0.00    +0.384 N 
ATOM      6  H   LIG    1        2.419  -0.301  -3.720  0.00  0.00    -0.081 HD
ATOM      7  C   LIG    1        0.410  -0.287  -3.153  0.00  0.00    -0.059 C 
ATOM      8  C   LIG    1        0.581  -1.358  -2.050  0.00  0.00    +0.092 C 
ATOM      9  O   LIG    1        0.549   0.730   0.942  0.00  0.00    -0.226 OA
ENDROOT
BRANCH   1  10
ATOM     10  O   LIG    1       -1.004  -0.686   0.048  0.00  0.00    -0.429 OA
BRANCH  10  11
ATOM     11  C   LIG    1       -2.063  -0.326   0.944  0.00  0.00    +0.384 C 
BRANCH  11  13
ATOM     12  F   LIG    1       -3.644  -1.708  -0.209  0.00  0.00    -0.166 F 
ATOM     13  C   LIG    1       -3.395  -0.453   0.167  0.00  0.00    +0.435 C 
ATOM     14  F   LIG    1       -4.430  -0.046   0.902  0.00  0.00    -0.166 F 
ATOM     15  F   LIG    1       -3.381   0.301  -0.933  0.00  0.00    -0.166 F 
ENDBRANCH  11  13
BRANCH  11  16
ATOM     16  C   LIG    1       -2.003  -1.176   2.241  0.00  0.00    +0.435 C 
ATOM     17  F   LIG    1       -2.099  -2.482   1.987  0.00  0.00    -0.166 F 
ATOM     18  F   LIG    1       -2.996  -0.863   3.074  0.00  0.00    -0.166 F 
ATOM     19  F   LIG    1       -0.867  -0.982   2.911  0.00  0.00    -0.166 F 
ENDBRANCH  11  16
ENDBRANCH  10  11
ENDBRANCH   1  10
BRANCH   5  20
ATOM     20  C   LIG    1        1.627   1.460  -4.542  0.00  0.00    -0.041 C 
BRANCH  20  21
ATOM     21  C   LIG    1        2.930   2.151  -4.948  0.00  0.00    -0.043 A 
ATOM     22  C   LIG    1        4.067   1.445  -5.408  0.00  0.00    +0.032 A 
ATOM     23  C   LIG    1        5.225   2.174  -5.719  0.00  0.00    +0.035 A 
ATOM     24  C   LIG    1        5.278   3.565  -5.589  0.00  0.00    +0.057 A 
ATOM     25  C   LIG    1        4.144   4.245  -5.140  0.00  0.00    +0.013 A 
ATOM     26  C   LIG    1        2.985   3.544  -4.824  0.00  0.00    +0.004 A 
BRANCH  22  27
ATOM     27  N   LIG    1        4.076   0.051  -5.589  0.00  0.00    -0.330 N 
ATOM     28  C   LIG    1        3.103  -0.717  -6.373  0.00  0.00    +0.105 C 
ATOM     29  C   LIG    1        3.793  -2.008  -6.813  0.00  0.00    +0.020 C 
ATOM     30  C   LIG    1        4.789  -2.247  -5.699  0.00  0.00    +0.020 C 
ATOM     31  C   LIG    1        5.231  -0.825  -5.375  0.00  0.00    +0.105 C 
ENDBRANCH  22  27
BRANCH  24  32
ATOM     32  C   LIG    1        6.565   4.309  -5.942  0.00  0.00    +0.417 C 
ATOM     33  F   LIG    1        6.505   5.605  -5.629  0.00  0.00    -0.166 F 
ATOM     34  F   LIG    1        6.788   4.207  -7.253  0.00  0.00    -0.166 F 
ATOM     35  F   LIG    1        7.595   3.773  -5.287  0.00  0.00    -0.166 F 
ENDBRANCH  24  32
ENDBRANCH  20  21
ENDBRANCH   5  20
TORSDOF 8
