REMARK  Name = DB16046
REMARK                            x       y       z     vdW  Elec       q    Type
REMARK                         _______ _______ _______ _____ _____    ______ ____
ROOT
ATOM      1  C   LIG    1       -0.785   2.629   0.549  0.00  0.00    +0.068 C 
ATOM      2  C   LIG    1       -1.088   1.174   0.267  0.00  0.00    +0.064 A 
ATOM      3  C   LIG    1       -0.191   0.103   0.083  0.00  0.00    +0.000 A 
ATOM      4  C   LIG    1       -1.004  -1.004  -0.141  0.00  0.00    +0.040 A 
ATOM      5  C   LIG    1       -0.686  -2.465  -0.384  0.00  0.00    +0.065 C 
ATOM      6  N   LIG    1       -2.289  -0.521  -0.083  0.00  0.00    -0.268 N 
ATOM      7  N   LIG    1       -2.340   0.787   0.180  0.00  0.00    -0.176 NA
ENDROOT
BRANCH   3   8
ATOM      8  C   LIG    1        1.327   0.151   0.117  0.00  0.00    +0.074 C 
BRANCH   8   9
ATOM      9  C   LIG    1        1.923   0.149   1.526  0.00  0.00    -0.039 A 
ATOM     10  C   LIG    1        3.017   0.959   1.859  0.00  0.00    -0.037 A 
ATOM     11  C   LIG    1        3.736   1.992   1.015  0.00  0.00    +0.036 C 
ATOM     12  C   LIG    1        4.931   2.420   1.867  0.00  0.00    +0.009 C 
ATOM     13  C   LIG    1        4.645   1.972   3.299  0.00  0.00    +0.039 C 
ATOM     14  C   LIG    1        3.537   0.948   3.157  0.00  0.00    -0.002 A 
ATOM     15  C   LIG    1        2.971   0.124   4.134  0.00  0.00    +0.123 A 
ATOM     16  C   LIG    1        1.901  -0.717   3.805  0.00  0.00    -0.008 A 
ATOM     17  C   LIG    1        1.278  -1.637   4.845  0.00  0.00    +0.047 C 
ATOM     18  C   LIG    1        1.390  -0.701   2.504  0.00  0.00    +0.011 A 
BRANCH  15  19
ATOM     19  O   LIG    1        3.481   0.152   5.408  0.00  0.00    -0.506 OA
ATOM     20  H   LIG    1        4.211   0.767   5.506  0.00  0.00    +0.292 HD
ENDBRANCH  15  19
ENDBRANCH   8   9
ENDBRANCH   3   8
BRANCH   6  21
ATOM     21  C   LIG    1       -3.539  -1.273  -0.183  0.00  0.00    +0.155 C 
BRANCH  21  22
ATOM     22  C   LIG    1       -3.963  -1.833   1.206  0.00  0.00    +0.143 C 
BRANCH  22  23
ATOM     23  C   LIG    1       -4.426  -3.306   1.167  0.00  0.00    +0.306 C 
ATOM     24  O   LIG    1       -4.032  -4.052   2.092  0.00  0.00    -0.251 OA
BRANCH  23  25
ATOM     25  O   LIG    1       -5.195  -3.669   0.246  0.00  0.00    -0.481 OA
ATOM     26  H   LIG    1       -5.488  -4.558   0.204  0.00  0.00    +0.295 HD
ENDBRANCH  23  25
ENDBRANCH  22  23
ENDBRANCH  21  22
ENDBRANCH   6  21
TORSDOF 7
