REMARK  Name = DB16933
REMARK                            x       y       z     vdW  Elec       q    Type
REMARK                         _______ _______ _______ _____ _____    ______ ____
ROOT
ATOM      1  C   LIG    1       -1.990   0.359  -0.581  0.00  0.00    +0.027 C 
ATOM      2  C   LIG    1       -1.177   1.219  -1.484  0.00  0.00    +0.225 C 
ATOM      3  O   LIG    1       -1.653   2.054  -2.260  0.00  0.00    -0.284 OA
ATOM      4  C   LIG    1        0.272   0.971  -1.353  0.00  0.00    +0.171 C 
ATOM      5  C   LIG    1        0.824   0.009  -0.570  0.00  0.00    +0.050 C 
ATOM      6  C   LIG    1        0.001  -0.929   0.241  0.00  0.00    +0.207 C 
ATOM      7  O   LIG    1        0.500  -1.858   0.880  0.00  0.00    -0.286 OA
ATOM      8  C   LIG    1       -1.462  -0.621   0.214  0.00  0.00    +0.082 C 
ENDROOT
BRANCH   4   9
ATOM      9  O   LIG    1        1.020   1.831  -2.103  0.00  0.00    -0.503 OA
ATOM     10  H   LIG    1        0.437   2.430  -2.575  0.00  0.00    +0.292 HD
ENDBRANCH   4   9
BRANCH   8  11
ATOM     11  N   LIG    1       -2.320  -1.370   1.011  0.00  0.00    -0.341 N 
ATOM     12  H   LIG    1       -3.255  -1.007   1.132  0.00  0.00    +0.146 HD
BRANCH  11  13
ATOM     13  C   LIG    1       -2.254  -2.771   1.410  0.00  0.00    +0.098 C 
ATOM     14  C   LIG    1       -1.797  -2.965   2.861  0.00  0.00    +0.024 C 
ENDBRANCH  11  13
ENDBRANCH   8  11
BRANCH   1  15
ATOM     15  C   LIG    1       -3.496   0.691  -0.598  0.00  0.00    +0.041 C 
BRANCH  15  16
ATOM     16  C   LIG    1       -4.315  -0.232  -1.523  0.00  0.00    +0.005 C 
BRANCH  16  17
ATOM     17  C   LIG    1       -5.828   0.069  -1.547  0.00  0.00    +0.000 C 
BRANCH  17  19
ATOM     18  C   LIG    1       -6.479  -1.485   0.419  0.00  0.00    +0.004 C 
ATOM     19  C   LIG    1       -6.564  -0.081  -0.198  0.00  0.00    -0.003 C 
ENDBRANCH  17  19
ENDBRANCH  16  17
ENDBRANCH  15  16
ENDBRANCH   1  15
BRANCH   5  20
ATOM     20  C   LIG    1        2.345  -0.182  -0.435  0.00  0.00    +0.070 C 
BRANCH  20  21
ATOM     21  C   LIG    1        2.875   0.158   0.952  0.00  0.00    -0.023 C 
ATOM     22  C   LIG    1        3.373   1.336   1.385  0.00  0.00    -0.076 C 
ATOM     23  C   LIG    1        3.533   2.580   0.521  0.00  0.00    +0.039 C 
BRANCH  22  24
ATOM     24  C   LIG    1        3.795   1.508   2.841  0.00  0.00    +0.034 C 
BRANCH  24  25
ATOM     25  C   LIG    1        2.821   2.351   3.693  0.00  0.00    +0.031 C 
BRANCH  25  26
ATOM     26  C   LIG    1        1.353   1.982   3.518  0.00  0.00    -0.028 C 
ATOM     27  C   LIG    1        0.629   1.109   4.250  0.00  0.00    -0.080 C 
ATOM     28  C   LIG    1        1.183   0.291   5.406  0.00  0.00    +0.038 C 
ATOM     29  C   LIG    1       -0.838   0.853   3.947  0.00  0.00    +0.038 C 
ENDBRANCH  25  26
ENDBRANCH  24  25
ENDBRANCH  22  24
ENDBRANCH  20  21
ENDBRANCH   5  20
TORSDOF 12
