REMARK  Name = DB16733
REMARK                            x       y       z     vdW  Elec       q    Type
REMARK                         _______ _______ _______ _____ _____    ______ ____
ROOT
ATOM      1  C   LIG    1        1.602   0.306   0.410  0.00  0.00    +0.126 A 
ATOM      2  C   LIG    1        2.338  -0.882   0.453  0.00  0.00    +0.087 A 
ATOM      3  C   LIG    1        3.736  -0.811   0.305  0.00  0.00    +0.129 A 
ATOM      4  N   LIG    1        4.335   0.393   0.071  0.00  0.00    -0.196 NA
ATOM      5  C   LIG    1        3.554   1.509   0.048  0.00  0.00    +0.255 A 
ATOM      6  N   LIG    1        2.205   1.510   0.217  0.00  0.00    -0.196 NA
ENDROOT
BRANCH   3   7
ATOM      7  N   LIG    1        4.544  -1.953   0.239  0.00  0.00    -0.311 N 
ATOM      8  C   LIG    1        6.016  -1.856   0.129  0.00  0.00    +0.134 C 
ATOM      9  C   LIG    1        6.723  -3.151  -0.318  0.00  0.00    +0.178 C 
ATOM     10  O   LIG    1        6.312  -4.234   0.497  0.00  0.00    -0.377 OA
ATOM     11  C   LIG    1        4.923  -4.473   0.360  0.00  0.00    +0.178 C 
ATOM     12  C   LIG    1        4.113  -3.242   0.820  0.00  0.00    +0.134 C 
ENDBRANCH   3   7
BRANCH   5  13
ATOM     13  N   LIG    1        4.174   2.769  -0.174  0.00  0.00    -0.205 N 
ATOM     14  C   LIG    1        3.575   4.008  -0.236  0.00  0.00    +0.118 A 
ATOM     15  C   LIG    1        4.588   4.915  -0.469  0.00  0.00    +0.044 A 
ATOM     16  C   LIG    1        5.762   4.158  -0.536  0.00  0.00    +0.060 A 
ATOM     17  C   LIG    1        7.180   4.621  -0.774  0.00  0.00    +0.067 C 
ATOM     18  N   LIG    1        5.507   2.879  -0.359  0.00  0.00    -0.169 NA
ENDBRANCH   5  13
BRANCH   1  19
ATOM     19  N   LIG    1        0.207   0.233   0.571  0.00  0.00    -0.326 N 
ATOM     20  H   LIG    1       -0.211  -0.685   0.528  0.00  0.00    +0.148 HD
BRANCH  19  21
ATOM     21  C   LIG    1       -0.666   1.378   0.306  0.00  0.00    +0.072 C 
ATOM     22  C   LIG    1       -0.951   1.465  -1.211  0.00  0.00    +0.028 C 
ATOM     23  C   LIG    1       -1.936   2.607  -1.533  0.00  0.00    +0.077 C 
ATOM     24  C   LIG    1       -3.240   2.526  -0.705  0.00  0.00    +0.249 C 
ATOM     25  F   LIG    1       -4.007   3.593  -0.927  0.00  0.00    -0.206 F 
ATOM     26  F   LIG    1       -3.908   1.446  -1.118  0.00  0.00    -0.206 F 
ATOM     27  C   LIG    1       -2.968   2.350   0.807  0.00  0.00    +0.077 C 
ATOM     28  C   LIG    1       -1.974   1.207   1.107  0.00  0.00    +0.028 C 
ENDBRANCH  19  21
ENDBRANCH   1  19
TORSDOF 4
