REMARK  Name = DB16967
REMARK                            x       y       z     vdW  Elec       q    Type
REMARK                         _______ _______ _______ _____ _____    ______ ____
ROOT
ATOM      1  C   LIG    1        1.590   0.033  -0.057  0.00  0.00    +0.062 C 
ATOM      2  C   LIG    1        2.041   0.798   1.249  0.00  0.00    -0.045 C 
ATOM      3  C   LIG    1        3.593   0.967   1.338  0.00  0.00    +0.021 C 
ATOM      4  C   LIG    1        4.240   1.594   0.086  0.00  0.00    +0.068 C 
ATOM      5  O   LIG    1        5.650   1.357   0.176  0.00  0.00    -0.373 OA
ATOM      6  C   LIG    1        6.373   2.584   0.100  0.00  0.00    +0.160 C 
ATOM      7  C   LIG    1        5.388   3.617   0.629  0.00  0.00    +0.031 C 
ATOM      8  C   LIG    1        4.086   3.128   0.036  0.00  0.00    +0.037 C 
ATOM      9  C   LIG    1        3.765   0.893  -1.198  0.00  0.00    +0.037 C 
ATOM     10  C   LIG    1        2.232   0.805  -1.252  0.00  0.00    +0.023 C 
ENDROOT
BRANCH   2  11
ATOM     11  N   LIG    1        1.564  -0.010   2.502  0.00  0.00    +0.383 N 
ATOM     12  H   LIG    1        1.812  -0.978   2.355  0.00  0.00    -0.081 HD
ATOM     13  C   LIG    1        0.044   0.066   2.805  0.00  0.00    -0.078 C 
ATOM     14  C   LIG    1       -0.100   0.146   4.330  0.00  0.00    -0.020 C 
ATOM     15  C   LIG    1        1.268  -0.189   4.893  0.00  0.00    -0.020 C 
ATOM     16  C   LIG    1        2.215   0.377   3.849  0.00  0.00    -0.078 C 
ENDBRANCH   2  11
BRANCH   1  18
ATOM     17  C   LIG    1       -0.607   1.205  -0.492  0.00  0.00    +0.132 C 
ATOM     18  N   LIG    1        0.121  -0.062  -0.280  0.00  0.00    -0.303 N 
ATOM     19  C   LIG    1       -0.552  -1.247  -0.328  0.00  0.00    +0.220 C 
ATOM     20  O   LIG    1       -1.763  -1.304  -0.565  0.00  0.00    -0.275 OA
BRANCH  19  21
ATOM     21  C   LIG    1        0.220  -2.564  -0.068  0.00  0.00    +0.131 C 
BRANCH  21  22
ATOM     22  C   LIG    1       -0.666  -3.804   0.042  0.00  0.00    -0.028 A 
ATOM     23  C   LIG    1       -1.215  -4.460  -1.079  0.00  0.00    +0.024 A 
ATOM     24  C   LIG    1       -1.171  -4.287  -2.499  0.00  0.00    +0.050 A 
ATOM     25  C   LIG    1       -1.948  -5.302  -3.035  0.00  0.00    +0.196 A 
ATOM     26  O   LIG    1       -2.478  -6.102  -2.068  0.00  0.00    -0.463 OA
ATOM     27  C   LIG    1       -2.039  -5.595  -0.879  0.00  0.00    +0.135 A 
ATOM     28  C   LIG    1       -2.342  -6.102   0.388  0.00  0.00    +0.047 A 
ATOM     29  C   LIG    1       -1.795  -5.432   1.481  0.00  0.00    +0.004 A 
ATOM     30  C   LIG    1       -0.981  -4.311   1.312  0.00  0.00    +0.005 A 
ENDBRANCH  21  22
ENDBRANCH  19  21
ENDBRANCH   1  18
TORSDOF 4
