REMARK  Name = DB16326
REMARK                            x       y       z     vdW  Elec       q    Type
REMARK                         _______ _______ _______ _____ _____    ______ ____
ROOT
ATOM      1  C   LIG    1        2.198  -1.144   0.666  0.00  0.00    +0.102 A 
ATOM      2  C   LIG    1        1.524  -2.208   1.192  0.00  0.00    +0.113 A 
ATOM      3  N   LIG    1        2.199  -3.365   1.565  0.00  0.00    -0.344 N 
ATOM      4  H   LIG    1        1.691  -4.128   1.988  0.00  0.00    +0.167 HD
ATOM      5  C   LIG    1        3.584  -3.374   1.582  0.00  0.00    +0.140 A 
ATOM      6  N   LIG    1        4.225  -4.351   2.310  0.00  0.00    -0.312 N 
ATOM      7  H   LIG    1        3.699  -5.101   2.734  0.00  0.00    +0.170 HD
ATOM      8  C   LIG    1        5.609  -4.305   2.436  0.00  0.00    +0.195 A 
ATOM      9  N   LIG    1        6.325  -3.365   1.916  0.00  0.00    -0.176 NA
ATOM     10  C   LIG    1        5.762  -2.290   1.180  0.00  0.00    +0.300 A 
ATOM     11  O   LIG    1        6.376  -1.363   0.650  0.00  0.00    -0.263 OA
ATOM     12  C   LIG    1        4.290  -2.327   1.065  0.00  0.00    +0.148 A 
ATOM     13  N   LIG    1        3.588  -1.234   0.547  0.00  0.00    -0.344 N 
ATOM     14  H   LIG    1        4.101  -0.449   0.168  0.00  0.00    +0.166 HD
ENDROOT
BRANCH   8  15
ATOM     15  N   LIG    1        6.246  -5.337   3.155  0.00  0.00    -0.329 N 
ATOM     16  H   LIG    1        5.819  -5.609   4.029  0.00  0.00    +0.145 HD
ATOM     17  H   LIG    1        7.244  -5.242   3.280  0.00  0.00    +0.145 HD
ENDBRANCH   8  15
BRANCH   1  18
ATOM     18  C   LIG    1        1.504   0.086   0.244  0.00  0.00    +0.208 C 
ATOM     19  O   LIG    1        2.140   1.116   0.001  0.00  0.00    -0.288 OA
BRANCH  18  21
ATOM     20  C   LIG    1       -0.497  -0.745  -1.136  0.00  0.00    +0.046 C 
ATOM     21  C   LIG    1       -0.040   0.081   0.082  0.00  0.00    +0.184 C 
BRANCH  21  22
ATOM     22  O   LIG    1       -0.522   1.405  -0.085  0.00  0.00    -0.384 OA
ATOM     23  H   LIG    1       -0.259   1.926   0.677  0.00  0.00    +0.210 HD
ENDBRANCH  21  22
ENDBRANCH  18  21
ENDBRANCH   1  18
TORSDOF 4
