REMARK  Name = DB16299
REMARK                            x       y       z     vdW  Elec       q    Type
REMARK                         _______ _______ _______ _____ _____    ______ ____
ROOT
ATOM      1  C   LIG    1        1.537   0.247  -1.193  0.00  0.00    +0.223 A 
ATOM      2  N   LIG    1        2.233   1.034  -0.317  0.00  0.00    -0.211 NA
ATOM      3  C   LIG    1        3.498   0.666  -0.084  0.00  0.00    +0.118 A 
ATOM      4  C   LIG    1        4.520   1.206   0.753  0.00  0.00    +0.070 A 
ATOM      5  C   LIG    1        5.622   0.377   0.575  0.00  0.00    +0.198 A 
ATOM      6  O   LIG    1        5.368  -0.638  -0.303  0.00  0.00    -0.456 OA
ATOM      7  C   LIG    1        4.079  -0.453  -0.713  0.00  0.00    +0.215 A 
ATOM      8  C   LIG    1        3.308  -1.196  -1.622  0.00  0.00    +0.269 A 
ATOM      9  N   LIG    1        2.011  -0.856  -1.835  0.00  0.00    -0.176 NA
ENDROOT
BRANCH   1  10
ATOM     10  N   LIG    1        0.195   0.550  -1.466  0.00  0.00    -0.284 N 
ATOM     11  H   LIG    1       -0.264  -0.130  -2.055  0.00  0.00    +0.155 HD
BRANCH  10  15
ATOM     12  C   LIG    1       -2.287   3.818  -0.500  0.00  0.00    +0.030 A 
ATOM     13  C   LIG    1       -0.909   4.013  -0.677  0.00  0.00    +0.025 A 
ATOM     14  C   LIG    1       -0.074   2.944  -0.992  0.00  0.00    +0.025 A 
ATOM     15  C   LIG    1       -0.601   1.656  -1.126  0.00  0.00    +0.034 A 
ATOM     16  C   LIG    1       -1.971   1.455  -0.962  0.00  0.00    +0.025 A 
ATOM     17  C   LIG    1       -2.804   2.525  -0.646  0.00  0.00    +0.025 A 
BRANCH  12  23
ATOM     18  C   LIG    1       -3.239   8.479  -2.716  0.00  0.00    -0.096 C 
ATOM     19  N   LIG    1       -3.558   7.458  -1.607  0.00  0.00    +0.380 N 
ATOM     20  H   LIG    1       -4.305   7.812  -1.026  0.00  0.00    -0.082 HD
ATOM     21  C   LIG    1       -4.005   6.114  -2.215  0.00  0.00    -0.060 C 
ATOM     22  C   LIG    1       -4.315   5.135  -1.062  0.00  0.00    +0.086 C 
ATOM     23  N   LIG    1       -3.150   4.871  -0.197  0.00  0.00    -0.333 N 
ATOM     24  C   LIG    1       -2.682   6.157   0.357  0.00  0.00    +0.086 C 
ATOM     25  C   LIG    1       -2.321   7.209  -0.721  0.00  0.00    -0.060 C 
ENDBRANCH  12  23
ENDBRANCH  10  15
ENDBRANCH   1  10
BRANCH   8  26
ATOM     26  O   LIG    1        3.770  -2.330  -2.257  0.00  0.00    -0.435 OA
BRANCH  26  27
ATOM     27  C   LIG    1        5.044  -2.410  -2.783  0.00  0.00    +0.132 A 
ATOM     28  C   LIG    1        5.748  -1.293  -3.260  0.00  0.00    +0.069 A 
ATOM     29  C   LIG    1        7.046  -1.430  -3.777  0.00  0.00    +0.037 A 
ATOM     30  C   LIG    1        7.614  -2.704  -3.865  0.00  0.00    +0.023 A 
ATOM     31  C   LIG    1        6.911  -3.820  -3.414  0.00  0.00    +0.005 A 
ATOM     32  C   LIG    1        5.634  -3.672  -2.875  0.00  0.00    +0.046 A 
BRANCH  29  33
ATOM     33  N   LIG    1        7.814  -0.352  -4.255  0.00  0.00    -0.282 N 
ATOM     34  H   LIG    1        8.556  -0.606  -4.890  0.00  0.00    +0.155 HD
ATOM     35  C   LIG    1        7.744   0.947  -3.892  0.00  0.00    +0.241 C 
ATOM     36  O   LIG    1        6.984   1.397  -3.030  0.00  0.00    -0.271 OA
BRANCH  35  37
ATOM     37  C   LIG    1        8.674   1.774  -4.628  0.00  0.00    +0.060 C 
ATOM     38  C   LIG    1        8.783   3.101  -4.429  0.00  0.00    +0.013 C 
ENDBRANCH  35  37
ENDBRANCH  29  33
ENDBRANCH  26  27
ENDBRANCH   8  26
TORSDOF 7
