REMARK  Name = DB16734
REMARK                            x       y       z     vdW  Elec       q    Type
REMARK                         _______ _______ _______ _____ _____    ______ ____
ROOT
ATOM      1  C   LIG    1       -5.548   2.087   0.023  0.00  0.00    +0.056 A 
ATOM      2  C   LIG    1       -5.289   3.462   0.016  0.00  0.00    +0.024 A 
ATOM      3  C   LIG    1       -3.976   3.945   0.016  0.00  0.00    +0.056 A 
ATOM      4  C   LIG    1       -2.916   3.032   0.024  0.00  0.00    +0.022 A 
ATOM      5  C   LIG    1       -3.147   1.649   0.029  0.00  0.00    +0.003 A 
ATOM      6  C   LIG    1       -4.471   1.192   0.027  0.00  0.00    +0.022 A 
ENDROOT
BRANCH   5   7
ATOM      7  C   LIG    1       -2.009   0.668   0.037  0.00  0.00    +0.093 A 
ATOM      8  C   LIG    1       -2.076  -0.738   0.055  0.00  0.00    +0.049 A 
ATOM      9  C   LIG    1       -0.770  -1.185   0.049  0.00  0.00    +0.109 A 
ATOM     10  N   LIG    1       -0.006  -0.049   0.034  0.00  0.00    -0.270 N 
ATOM     11  N   LIG    1       -0.750   1.067   0.025  0.00  0.00    -0.171 NA
BRANCH  10  12
ATOM     12  C   LIG    1        1.452   0.048  -0.004  0.00  0.00    +0.154 C 
BRANCH  12  13
ATOM     13  C   LIG    1        1.995   0.704  -1.306  0.00  0.00    +0.143 C 
BRANCH  13  14
ATOM     14  C   LIG    1        1.574   0.014  -2.625  0.00  0.00    +0.306 C 
ATOM     15  O   LIG    1        1.384   0.755  -3.614  0.00  0.00    -0.251 OA
BRANCH  14  16
ATOM     16  O   LIG    1        1.484  -1.236  -2.650  0.00  0.00    -0.481 OA
ATOM     17  H   LIG    1        1.213  -1.670  -3.435  0.00  0.00    +0.295 HD
ENDBRANCH  14  16
ENDBRANCH  13  14
ENDBRANCH  12  13
ENDBRANCH  10  12
ENDBRANCH   5   7
BRANCH   1  19
ATOM     18  F   LIG    1       -7.811   2.427   0.634  0.00  0.00    -0.166 F 
ATOM     19  C   LIG    1       -6.987   1.571   0.028  0.00  0.00    +0.417 C 
ATOM     20  F   LIG    1       -7.393   1.414  -1.232  0.00  0.00    -0.166 F 
ATOM     21  F   LIG    1       -7.082   0.396   0.653  0.00  0.00    -0.166 F 
ENDBRANCH   1  19
BRANCH   3  22
ATOM     22  C   LIG    1       -3.704   5.448   0.005  0.00  0.00    +0.417 C 
ATOM     23  F   LIG    1       -3.615   5.879   1.264  0.00  0.00    -0.166 F 
ATOM     24  F   LIG    1       -2.561   5.733  -0.621  0.00  0.00    -0.166 F 
ATOM     25  F   LIG    1       -4.684   6.120  -0.603  0.00  0.00    -0.166 F 
ENDBRANCH   3  22
TORSDOF 7
