REMARK  Name = DB16146
REMARK                            x       y       z     vdW  Elec       q    Type
REMARK                         _______ _______ _______ _____ _____    ______ ____
ROOT
ATOM      1  CA  ARG A  9        1.603  -0.212   0.065  0.00  0.00    +0.159 C 
ENDROOT
BRANCH   1   2
ATOM      2  C   ARG A  9        1.858  -0.107  -1.454  0.00  0.00    +0.237 C 
ATOM      3  N   PRO A 10        2.080   1.119  -1.991  0.00  0.00    -0.288 N 
ATOM      4  CA  PRO A 10        2.331   1.314  -3.431  0.00  0.00    +0.162 C 
ATOM      5  CB  PRO A 10        2.105   2.822  -3.633  0.00  0.00    +0.033 C 
ATOM      6  CG  PRO A 10        2.480   3.450  -2.301  0.00  0.00    +0.021 C 
ATOM      7  CD  PRO A 10        2.034   2.404  -1.285  0.00  0.00    +0.109 C 
ATOM      8  O   ARG A  9        1.818  -1.141  -2.125  0.00  0.00    -0.274 OA
BRANCH   4   9
ATOM      9  C   PRO A 10        3.741   0.842  -3.841  0.00  0.00    +0.234 C 
ATOM     10  N   LYS A 11        3.810  -0.387  -4.380  0.00  0.00    -0.302 N 
ATOM     11  H   LYS A 11        2.961  -0.919  -4.502  0.00  0.00    +0.150 HD
ATOM     12  O   PRO A 10        4.717   1.567  -3.644  0.00  0.00    -0.274 OA
BRANCH  10  13
ATOM     13  CA  LYS A 11        5.042  -1.041  -4.817  0.00  0.00    +0.159 C 
BRANCH  13  14
ATOM     14  C   LYS A 11        5.555  -0.446  -6.140  0.00  0.00    +0.234 C 
ATOM     15  N   LEU A 12        6.879  -0.226  -6.207  0.00  0.00    -0.302 N 
ATOM     16  H   LEU A 12        7.454  -0.440  -5.405  0.00  0.00    +0.150 HD
ATOM     17  O   LYS A 11        4.763  -0.227  -7.058  0.00  0.00    -0.274 OA
BRANCH  15  18
ATOM     18  CA  LEU A 12        7.593   0.299  -7.373  0.00  0.00    +0.159 C 
BRANCH  18  19
ATOM     19  C   LEU A 12        7.589  -0.695  -8.550  0.00  0.00    +0.234 C 
ATOM     20  N   LYS A 13        7.470  -0.146  -9.768  0.00  0.00    -0.302 N 
ATOM     21  H   LYS A 13        7.374   0.856  -9.852  0.00  0.00    +0.150 HD
ATOM     22  O   LEU A 12        7.721  -1.902  -8.339  0.00  0.00    -0.274 OA
BRANCH  20  23
ATOM     23  CA  LYS A 13        7.513  -0.882 -11.027  0.00  0.00    +0.159 C 
BRANCH  23  24
ATOM     24  C   LYS A 13        8.116   0.019 -12.113  0.00  0.00    +0.234 C 
ATOM     25  N   TRP A 14        9.101  -0.526 -12.846  0.00  0.00    -0.302 N 
ATOM     26  H   TRP A 14        9.410  -1.465 -12.642  0.00  0.00    +0.150 HD
ATOM     27  O   LYS A 13        7.666   1.153 -12.282  0.00  0.00    -0.274 OA
BRANCH  25  28
ATOM     28  CA  TRP A 14        9.731   0.118 -13.997  0.00  0.00    +0.163 C 
BRANCH  28  29
ATOM     29  C   TRP A 14        8.831   0.078 -15.246  0.00  0.00    +0.234 C 
ATOM     30  N   ASP A 15        8.922   1.152 -16.044  0.00  0.00    -0.302 N 
ATOM     31  H   ASP A 15        9.521   1.917 -15.765  0.00  0.00    +0.150 HD
ATOM     32  O   TRP A 14        8.137  -0.914 -15.476  0.00  0.00    -0.274 OA
BRANCH  30  33
ATOM     33  CA  ASP A 15        8.349   1.274 -17.379  0.00  0.00    +0.169 C 
BRANCH  33  34
ATOM     34  C   ASP A 15        9.450   1.808 -18.305  0.00  0.00    +0.234 C 
ATOM     35  N   ASN A 16        9.815   0.997 -19.310  0.00  0.00    -0.302 N 
ATOM     36  H   ASN A 16        9.369   0.097 -19.412  0.00  0.00    +0.150 HD
ATOM     37  O   ASP A 15        9.932   2.922 -18.093  0.00  0.00    -0.274 OA
BRANCH  35  38
ATOM     38  CA  ASN A 16       10.800   1.346 -20.332  0.00  0.00    +0.168 C 
BRANCH  38  39
ATOM     39  C   ASN A 16       10.206   2.336 -21.351  0.00  0.00    +0.234 C 
ATOM     40  N   GLN A 17       11.066   3.231 -21.863  0.00  0.00    -0.301 N 
ATOM     41  H   GLN A 17       12.043   3.175 -21.615  0.00  0.00    +0.150 HD
ATOM     42  O   ASN A 16        9.014   2.262 -21.655  0.00  0.00    -0.274 OA
BRANCH  40  43
ATOM     43  CA  GLN A 17       10.730   4.287 -22.834  0.00  0.00    +0.182 C 
BRANCH  43  44
ATOM     44  C   GLN A 17       11.986   4.615 -23.730  0.00  0.00    +0.325 C 
ATOM     45  OXT GLN A 17       11.710   4.844 -24.930  0.00  0.00    -0.249 OA
BRANCH  44  46
ATOM     46  O   GLN A 17       13.104   4.656 -23.160  0.00  0.00    -0.479 OA
ATOM     47  H   GLN A 17       13.876   4.848 -23.655  0.00  0.00    +0.295 HD
ENDBRANCH  44  46
ENDBRANCH  43  44
BRANCH  43  48
ATOM     48  CB  GLN A 17       10.305   5.601 -22.110  0.00  0.00    +0.043 C 
BRANCH  48  49
ATOM     49  CG  GLN A 17        9.012   5.492 -21.270  0.00  0.00    +0.098 C 
BRANCH  49  50
ATOM     50  CD  GLN A 17        8.553   6.819 -20.657  0.00  0.00    +0.211 C 
ATOM     51  OE1 GLN A 17        9.078   7.888 -20.963  0.00  0.00    -0.276 OA
ATOM     52  NE2 GLN A 17        7.548   6.749 -19.782  0.00  0.00    -0.329 N 
ATOM     53 HE21 GLN A 17        7.194   7.588 -19.345  0.00  0.00    +0.145 HD
ATOM     54 HE22 GLN A 17        7.138   5.856 -19.548  0.00  0.00    +0.145 HD
ENDBRANCH  49  50
ENDBRANCH  48  49
ENDBRANCH  43  48
ENDBRANCH  40  43
ENDBRANCH  38  39
BRANCH  38  55
ATOM     55  CB  ASN A 16       11.289   0.063 -21.043  0.00  0.00    +0.127 C 
BRANCH  55  56
ATOM     56  CG  ASN A 16       12.742   0.167 -21.518  0.00  0.00    +0.213 C 
ATOM     57  OD1 ASN A 16       13.666   0.099 -20.710  0.00  0.00    -0.276 OA
ATOM     58  ND2 ASN A 16       12.946   0.325 -22.827  0.00  0.00    -0.329 N 
ATOM     59 HD21 ASN A 16       13.886   0.402 -23.189  0.00  0.00    +0.145 HD
ATOM     60 HD22 ASN A 16       12.165   0.391 -23.464  0.00  0.00    +0.145 HD
ENDBRANCH  55  56
ENDBRANCH  38  55
ENDBRANCH  35  38
ENDBRANCH  33  34
BRANCH  33  61
ATOM     61  CB  ASP A 15        7.076   2.157 -17.312  0.00  0.00    +0.152 C 
BRANCH  61  62
ATOM     62  CG  ASP A 15        6.527   2.575 -18.682  0.00  0.00    +0.307 C 
ATOM     63  OD2 ASP A 15        6.554   3.728 -19.107  0.00  0.00    -0.251 OA
BRANCH  62  64
ATOM     64  OD1 ASP A 15        6.018   1.519 -19.378  0.00  0.00    -0.481 OA
ATOM     65  HD1 ASP A 15        5.691   1.775 -20.244  0.00  0.00    +0.295 HD
ENDBRANCH  62  64
ENDBRANCH  61  62
ENDBRANCH  33  61
ENDBRANCH  30  33
ENDBRANCH  28  29
BRANCH  28  66
ATOM     66  CB  TRP A 14       11.104  -0.545 -14.254  0.00  0.00    +0.069 C 
BRANCH  66  67
ATOM     67  CG  TRP A 14       11.845  -0.118 -15.493  0.00  0.00    -0.020 A 
ATOM     68  CD2 TRP A 14       12.368   1.202 -15.838  0.00  0.00    +0.003 A 
ATOM     69  CE3 TRP A 14       12.401   2.460 -15.189  0.00  0.00    +0.010 A 
ATOM     70  CZ3 TRP A 14       12.977   3.587 -15.809  0.00  0.00    +0.001 A 
ATOM     71  CH2 TRP A 14       13.543   3.484 -17.095  0.00  0.00    +0.002 A 
ATOM     72  CZ2 TRP A 14       13.533   2.248 -17.767  0.00  0.00    +0.026 A 
ATOM     73  CE2 TRP A 14       12.948   1.133 -17.142  0.00  0.00    +0.047 A 
ATOM     74  NE1 TRP A 14       12.761  -0.177 -17.530  0.00  0.00    -0.360 N 
ATOM     75  HE1 TRP A 14       13.052  -0.574 -18.412  0.00  0.00    +0.165 HD
ATOM     76  CD1 TRP A 14       12.102  -0.906 -16.563  0.00  0.00    +0.087 A 
ENDBRANCH  66  67
ENDBRANCH  28  66
ENDBRANCH  25  28
ENDBRANCH  23  24
BRANCH  23  77
ATOM     77  CB  LYS A 13        6.094  -1.389 -11.380  0.00  0.00    +0.032 C 
BRANCH  77  78
ATOM     78  CG  LYS A 13        5.991  -2.121 -12.731  0.00  0.00    +0.000 C 
BRANCH  78  79
ATOM     79  CD  LYS A 13        4.585  -2.674 -13.004  0.00  0.00    -0.019 C 
BRANCH  79  80
ATOM     80  CE  LYS A 13        4.488  -3.357 -14.377  0.00  0.00    -0.086 C 
BRANCH  80  81
ATOM     81  NZ  LYS A 13        3.131  -3.869 -14.638  0.00  0.00    +0.378 N 
ATOM     82  HZ1 LYS A 13        2.884  -4.544 -13.930  0.00  0.00    -0.090 HD
ATOM     83  HZ2 LYS A 13        2.472  -3.103 -14.617  0.00  0.00    -0.090 HD
ATOM     84  HZ3 LYS A 13        3.106  -4.310 -15.546  0.00  0.00    -0.090 HD
ENDBRANCH  80  81
ENDBRANCH  79  80
ENDBRANCH  78  79
ENDBRANCH  77  78
ENDBRANCH  23  77
ENDBRANCH  20  23
ENDBRANCH  18  19
BRANCH  18  85
ATOM     85  CB  LEU A 12        9.028   0.675  -6.928  0.00  0.00    +0.034 C 
BRANCH  85  86
ATOM     86  CG  LEU A 12        9.951   1.292  -8.010  0.00  0.00    -0.015 C 
ATOM     87  CD2 LEU A 12        9.370   2.587  -8.621  0.00  0.00    +0.007 C 
ATOM     88  CD1 LEU A 12       11.380   1.496  -7.462  0.00  0.00    +0.007 C 
ENDBRANCH  85  86
ENDBRANCH  18  85
ENDBRANCH  15  18
ENDBRANCH  13  14
BRANCH  13  89
ATOM     89  CB  LYS A 11        4.776  -2.559  -4.917  0.00  0.00    +0.032 C 
BRANCH  89  90
ATOM     90  CG  LYS A 11        6.007  -3.401  -5.311  0.00  0.00    +0.000 C 
BRANCH  90  91
ATOM     91  CD  LYS A 11        5.784  -4.919  -5.213  0.00  0.00    -0.019 C 
BRANCH  91  92
ATOM     92  CE  LYS A 11        4.751  -5.460  -6.216  0.00  0.00    -0.086 C 
BRANCH  92  93
ATOM     93  NZ  LYS A 11        4.623  -6.925  -6.129  0.00  0.00    +0.378 N 
ATOM     94  HZ1 LYS A 11        5.517  -7.354  -6.324  0.00  0.00    -0.090 HD
ATOM     95  HZ2 LYS A 11        4.322  -7.183  -5.200  0.00  0.00    -0.090 HD
ATOM     96  HZ3 LYS A 11        3.942  -7.245  -6.804  0.00  0.00    -0.090 HD
ENDBRANCH  92  93
ENDBRANCH  91  92
ENDBRANCH  90  91
ENDBRANCH  89  90
ENDBRANCH  13  89
ENDBRANCH  10  13
ENDBRANCH   4   9
ENDBRANCH   1   2
BRANCH   1  98
ATOM     97  C   ILE A  8       -0.581   0.719   0.820  0.00  0.00    +0.234 C 
ATOM     98  N   ARG A  9        0.159  -0.262   0.280  0.00  0.00    -0.302 N 
ATOM     99  H   ARG A  9       -0.305  -1.085  -0.076  0.00  0.00    +0.150 HD
ATOM    100  O   ILE A  8       -0.119   1.763   1.285  0.00  0.00    -0.274 OA
BRANCH  97 101
ATOM    101  CA  ILE A  8       -2.103   0.481   0.825  0.00  0.00    +0.162 C 
BRANCH 101 102
ATOM    102  N   ILE A  8       -2.717   1.194   1.945  0.00  0.00    -0.302 N 
ATOM    103  H   ILE A  8       -2.221   2.012   2.268  0.00  0.00    +0.150 HD
ATOM    104  C   ARG A  7       -3.895   0.870   2.496  0.00  0.00    +0.234 C 
ATOM    105  O   ARG A  7       -4.559  -0.120   2.182  0.00  0.00    -0.274 OA
BRANCH 104 106
ATOM    106  CA  ARG A  7       -4.412   1.837   3.573  0.00  0.00    +0.159 C 
BRANCH 106 107
ATOM    107  N   ARG A  7       -5.872   1.846   3.548  0.00  0.00    -0.302 N 
ATOM    108  H   ARG A  7       -6.305   1.002   3.200  0.00  0.00    +0.150 HD
ATOM    109  C   ARG A  6       -6.646   2.872   3.929  0.00  0.00    +0.234 C 
ATOM    110  O   ARG A  6       -6.223   3.948   4.354  0.00  0.00    -0.274 OA
BRANCH 109 111
ATOM    111  CA  ARG A  6       -8.161   2.646   3.773  0.00  0.00    +0.159 C 
BRANCH 111 112
ATOM    112  N   ARG A  6       -8.929   3.226   4.878  0.00  0.00    -0.302 N 
ATOM    113  H   ARG A  6       -9.565   3.971   4.633  0.00  0.00    +0.150 HD
ATOM    114  C   LEU A  5       -8.838   2.834   6.161  0.00  0.00    +0.234 C 
ATOM    115  O   LEU A  5       -8.088   1.946   6.568  0.00  0.00    -0.274 OA
BRANCH 114 116
ATOM    116  CA  LEU A  5       -9.731   3.578   7.167  0.00  0.00    +0.159 C 
BRANCH 116 117
ATOM    117  N   LEU A  5      -10.518   2.612   7.932  0.00  0.00    -0.302 N 
ATOM    118  H   LEU A  5      -10.151   2.363   8.838  0.00  0.00    +0.150 HD
ATOM    119  C   PHE A  4      -11.611   1.981   7.471  0.00  0.00    +0.234 C 
ATOM    120  O   PHE A  4      -12.149   2.216   6.388  0.00  0.00    -0.274 OA
BRANCH 119 121
ATOM    121  CA  PHE A  4      -12.169   0.860   8.364  0.00  0.00    +0.163 C 
BRANCH 121 122
ATOM    122  N   PHE A  4      -13.584   1.057   8.677  0.00  0.00    -0.302 N 
ATOM    123  H   PHE A  4      -14.229   0.455   8.186  0.00  0.00    +0.150 HD
ATOM    124  C   GLY A  3      -14.063   1.971   9.536  0.00  0.00    +0.231 C 
ATOM    125  O   GLY A  3      -13.339   2.744  10.168  0.00  0.00    -0.274 OA
BRANCH 124 126
ATOM    126  CA  GLY A  3      -15.591   1.983   9.700  0.00  0.00    +0.200 C 
BRANCH 126 127
ATOM    127  N   GLY A  3      -16.004   2.945  10.721  0.00  0.00    -0.305 N 
ATOM    128  H   GLY A  3      -16.070   2.596  11.666  0.00  0.00    +0.149 HD
ATOM    129  C   GLY A  2      -16.250   4.245  10.492  0.00  0.00    +0.231 C 
ATOM    130  O   GLY A  2      -16.197   4.754   9.371  0.00  0.00    -0.274 OA
BRANCH 129 131
ATOM    131  CA  GLY A  2      -16.634   5.071  11.730  0.00  0.00    +0.200 C 
BRANCH 131 132
ATOM    132  N   GLY A  2      -16.567   6.507  11.461  0.00  0.00    -0.305 N 
ATOM    133  H   GLY A  2      -17.446   6.975  11.298  0.00  0.00    +0.149 HD
ATOM    134  C   TYR A  1      -15.428   7.220  11.397  0.00  0.00    +0.231 C 
ATOM    135  O   TYR A  1      -14.305   6.739  11.569  0.00  0.00    -0.274 OA
BRANCH 134 136
ATOM    136  CA  TYR A  1      -15.593   8.720  11.070  0.00  0.00    +0.142 C 
BRANCH 136 137
ATOM    137  N   TYR A  1      -14.909   9.482  12.130  0.00  0.00    -0.320 NA
ATOM    138  H1  TYR A  1      -15.415   9.431  13.003  0.00  0.00    +0.119 HD
ATOM    139  H2  TYR A  1      -14.836  10.459  11.886  0.00  0.00    +0.119 HD
ENDBRANCH 136 137
BRANCH 136 140
ATOM    140  CB  TYR A  1      -15.038   9.040   9.661  0.00  0.00    +0.063 C 
BRANCH 140 141
ATOM    141  CG  TYR A  1      -15.337  10.447   9.170  0.00  0.00    -0.045 A 
ATOM    142  CD2 TYR A  1      -14.366  11.465   9.288  0.00  0.00    +0.007 A 
ATOM    143  CE2 TYR A  1      -14.649  12.768   8.836  0.00  0.00    +0.045 A 
ATOM    144  CZ  TYR A  1      -15.903  13.060   8.264  0.00  0.00    +0.117 A 
ATOM    145  CE1 TYR A  1      -16.875  12.047   8.146  0.00  0.00    +0.045 A 
ATOM    146  CD1 TYR A  1      -16.592  10.743   8.598  0.00  0.00    +0.007 A 
BRANCH 144 147
ATOM    147  OH  TYR A  1      -16.180  14.322   7.825  0.00  0.00    -0.507 OA
ATOM    148  HH  TYR A  1      -15.449  14.933   7.948  0.00  0.00    +0.292 HD
ENDBRANCH 144 147
ENDBRANCH 140 141
ENDBRANCH 136 140
ENDBRANCH 134 136
ENDBRANCH 131 132
ENDBRANCH 129 131
ENDBRANCH 126 127
ENDBRANCH 124 126
ENDBRANCH 121 122
BRANCH 121 149
ATOM    149  CB  PHE A  4      -11.986  -0.544   7.744  0.00  0.00    +0.067 C 
BRANCH 149 150
ATOM    150  CG  PHE A  4      -10.591  -0.891   7.244  0.00  0.00    -0.045 A 
ATOM    151  CD2 PHE A  4       -9.572  -1.225   8.162  0.00  0.00    +0.004 A 
ATOM    152  CE2 PHE A  4       -8.286  -1.486   7.707  0.00  0.00    +0.000 A 
ATOM    153  CZ  PHE A  4       -7.991  -1.396   6.353  0.00  0.00    +0.000 A 
ATOM    154  CE1 PHE A  4       -8.972  -1.026   5.442  0.00  0.00    +0.000 A 
ATOM    155  CD1 PHE A  4      -10.264  -0.759   5.877  0.00  0.00    +0.004 A 
ENDBRANCH 149 150
ENDBRANCH 121 149
ENDBRANCH 119 121
ENDBRANCH 116 117
BRANCH 116 156
ATOM    156  CB  LEU A  5       -8.912   4.442   8.158  0.00  0.00    +0.034 C 
BRANCH 156 157
ATOM    157  CG  LEU A  5       -7.930   5.462   7.529  0.00  0.00    -0.015 C 
ATOM    158  CD2 LEU A  5       -8.635   6.460   6.585  0.00  0.00    +0.007 C 
ATOM    159  CD1 LEU A  5       -7.103   6.173   8.622  0.00  0.00    +0.007 C 
ENDBRANCH 156 157
ENDBRANCH 116 156
ENDBRANCH 114 116
ENDBRANCH 111 112
BRANCH 111 160
ATOM    160  CB  ARG A  6       -8.690   3.206   2.433  0.00  0.00    +0.033 C 
BRANCH 160 161
ATOM    161  CG  ARG A  6       -8.051   2.562   1.186  0.00  0.00    +0.017 C 
BRANCH 161 162
ATOM    162  CD  ARG A  6       -8.594   3.119  -0.139  0.00  0.00    +0.084 C 
BRANCH 162 163
ATOM    163  NE  ARG A  6       -7.843   2.598  -1.296  0.00  0.00    -0.283 NA
ATOM    164  HE  ARG A  6       -8.248   1.788  -1.742  0.00  0.00    +0.125 HD
BRANCH 163 165
ATOM    165  CZ  ARG A  6       -6.662   3.044  -1.770  0.00  0.00    +0.167 C 
BRANCH 165 166
ATOM    166  NH2 ARG A  6       -6.111   2.416  -2.817  0.00  0.00    -0.297 NA
ATOM    167 HH21 ARG A  6       -6.578   1.626  -3.240  0.00  0.00    +0.121 HD
ATOM    168 HH22 ARG A  6       -5.227   2.730  -3.192  0.00  0.00    +0.121 HD
ENDBRANCH 165 166
BRANCH 165 169
ATOM    169  NH1 ARG A  6       -6.015   4.091  -1.232  0.00  0.00    -0.297 NA
ATOM    170 HH11 ARG A  6       -6.415   4.581  -0.444  0.00  0.00    +0.121 HD
ATOM    171 HH12 ARG A  6       -5.133   4.399  -1.616  0.00  0.00    +0.121 HD
ENDBRANCH 165 169
ENDBRANCH 163 165
ENDBRANCH 162 163
ENDBRANCH 161 162
ENDBRANCH 160 161
ENDBRANCH 111 160
ENDBRANCH 109 111
ENDBRANCH 106 107
BRANCH 106 172
ATOM    172  CB  ARG A  7       -3.919   1.502   5.000  0.00  0.00    +0.033 C 
BRANCH 172 173
ATOM    173  CG  ARG A  7       -4.275   0.086   5.509  0.00  0.00    +0.017 C 
BRANCH 173 174
ATOM    174  CD  ARG A  7       -4.158  -0.078   7.036  0.00  0.00    +0.084 C 
BRANCH 174 175
ATOM    175  NE  ARG A  7       -5.236   0.627   7.755  0.00  0.00    -0.283 NA
ATOM    176  HE  ARG A  7       -5.877   1.145   7.168  0.00  0.00    +0.125 HD
BRANCH 175 177
ATOM    177  CZ  ARG A  7       -5.464   0.645   9.082  0.00  0.00    +0.167 C 
BRANCH 177 178
ATOM    178  NH1 ARG A  7       -4.683  -0.009   9.956  0.00  0.00    -0.297 NA
ATOM    179 HH11 ARG A  7       -3.888  -0.538   9.627  0.00  0.00    +0.121 HD
ATOM    180 HH12 ARG A  7       -4.886   0.025  10.945  0.00  0.00    +0.121 HD
ENDBRANCH 177 178
BRANCH 177 181
ATOM    181  NH2 ARG A  7       -6.511   1.341   9.543  0.00  0.00    -0.297 NA
ATOM    182 HH21 ARG A  7       -7.114   1.832   8.896  0.00  0.00    +0.121 HD
ATOM    183 HH22 ARG A  7       -6.707   1.375  10.533  0.00  0.00    +0.121 HD
ENDBRANCH 177 181
ENDBRANCH 175 177
ENDBRANCH 174 175
ENDBRANCH 173 174
ENDBRANCH 172 173
ENDBRANCH 106 172
ENDBRANCH 104 106
ENDBRANCH 101 102
BRANCH 101 184
ATOM    184  CB  ILE A  8       -2.730   0.933  -0.539  0.00  0.00    +0.015 C 
ATOM    185  CG2 ILE A  8       -2.512   2.428  -0.858  0.00  0.00    +0.010 C 
BRANCH 184 186
ATOM    186  CG1 ILE A  8       -2.307   0.083  -1.761  0.00  0.00    +0.002 C 
ATOM    187  CD1 ILE A  8       -2.577  -1.421  -1.611  0.00  0.00    +0.004 C 
ENDBRANCH 184 186
ENDBRANCH 101 184
ENDBRANCH  97 101
ENDBRANCH   1  98
BRANCH   1 188
ATOM    188  CB  ARG A  9        2.247  -1.490   0.650  0.00  0.00    +0.033 C 
BRANCH 188 189
ATOM    189  CG  ARG A  9        2.054  -1.656   2.167  0.00  0.00    +0.017 C 
BRANCH 189 190
ATOM    190  CD  ARG A  9        2.830  -2.863   2.718  0.00  0.00    +0.084 C 
BRANCH 190 191
ATOM    191  NE  ARG A  9        2.484  -3.161   4.119  0.00  0.00    -0.283 NA
ATOM    192  HE  ARG A  9        3.020  -2.658   4.812  0.00  0.00    +0.125 HD
BRANCH 191 193
ATOM    193  CZ  ARG A  9        1.526  -4.000   4.559  0.00  0.00    +0.167 C 
BRANCH 193 194
ATOM    194  NH2 ARG A  9        1.358  -4.154   5.879  0.00  0.00    -0.297 NA
ATOM    195 HH21 ARG A  9        1.942  -3.647   6.529  0.00  0.00    +0.121 HD
ATOM    196 HH22 ARG A  9        0.656  -4.788   6.232  0.00  0.00    +0.121 HD
ENDBRANCH 193 194
BRANCH 193 197
ATOM    197  NH1 ARG A  9        0.732  -4.691   3.723  0.00  0.00    -0.297 NA
ATOM    198 HH11 ARG A  9        0.844  -4.591   2.724  0.00  0.00    +0.121 HD
ATOM    199 HH12 ARG A  9        0.028  -5.317   4.086  0.00  0.00    +0.121 HD
ENDBRANCH 193 197
ENDBRANCH 191 193
ENDBRANCH 190 191
ENDBRANCH 189 190
ENDBRANCH 188 189
ENDBRANCH   1 188
TORSDOF 86
