REMARK  Name = DB16118
REMARK                            x       y       z     vdW  Elec       q    Type
REMARK                         _______ _______ _______ _____ _____    ______ ____
ROOT
ATOM      1  C   LIG    1       -1.896   0.805  -0.060  0.00  0.00    +0.136 A 
ATOM      2  C   LIG    1       -0.496   0.950   0.006  0.00  0.00    +0.100 A 
ATOM      3  C   LIG    1        0.318  -0.144  -0.385  0.00  0.00    +0.023 A 
ATOM      4  C   LIG    1       -0.314  -1.335  -0.828  0.00  0.00    +0.093 A 
ATOM      5  C   LIG    1       -1.723  -1.382  -0.860  0.00  0.00    +0.117 A 
ATOM      6  N   LIG    1       -2.487  -0.332  -0.481  0.00  0.00    -0.224 NA
ENDROOT
BRANCH   3   7
ATOM      7  C   LIG    1        1.814  -0.043  -0.328  0.00  0.00    -0.015 A 
ATOM      8  C   LIG    1        2.557   0.108  -1.502  0.00  0.00    +0.012 A 
ATOM      9  C   LIG    1        3.945   0.197  -1.451  0.00  0.00    +0.046 A 
ATOM     10  C   LIG    1        4.612   0.135  -0.218  0.00  0.00    +0.121 A 
ATOM     11  C   LIG    1        3.867  -0.014   0.951  0.00  0.00    +0.046 A 
ATOM     12  C   LIG    1        2.479  -0.103   0.899  0.00  0.00    +0.012 A 
BRANCH  10  13
ATOM     13  O   LIG    1        5.984   0.212  -0.069  0.00  0.00    -0.490 OA
BRANCH  13  14
ATOM     14  C   LIG    1        6.808   0.364  -1.223  0.00  0.00    +0.256 C 
BRANCH  14  15
ATOM     15  C   LIG    1        8.284   0.412  -0.802  0.00  0.00    +0.196 C 
BRANCH  15  16
ATOM     16  O   LIG    1        8.569   1.604  -0.098  0.00  0.00    -0.392 OA
ATOM     17  H   LIG    1        9.487   1.582   0.182  0.00  0.00    +0.210 HD
ENDBRANCH  15  16
ENDBRANCH  14  15
ENDBRANCH  13  14
ENDBRANCH  10  13
ENDBRANCH   3   7
BRANCH   1  18
ATOM     18  N   LIG    1       -2.789   1.820   0.301  0.00  0.00    -0.342 N 
ATOM     19  H   LIG    1       -3.782   1.654   0.226  0.00  0.00    +0.144 HD
ATOM     20  H   LIG    1       -2.431   2.708   0.624  0.00  0.00    +0.144 HD
ENDBRANCH   1  18
BRANCH   2  21
ATOM     21  C   LIG    1        0.099   2.216   0.457  0.00  0.00    +0.103 C 
ATOM     22  N   LIG    1        0.566   3.213   0.812  0.00  0.00    -0.191 NA
ENDBRANCH   2  21
BRANCH   4  23
ATOM     23  C   LIG    1        0.481  -2.502  -1.231  0.00  0.00    +0.102 C 
ATOM     24  N   LIG    1        1.109  -3.421  -1.548  0.00  0.00    -0.191 NA
ENDBRANCH   4  23
BRANCH   5  25
ATOM     25  S   LIG    1       -2.619  -2.830  -1.398  0.00  0.00    -0.098 S 
BRANCH  25  26
ATOM     26  C   LIG    1       -4.401  -2.493  -1.237  0.00  0.00    +0.131 C 
BRANCH  26  27
ATOM     27  C   LIG    1       -5.266  -3.652  -1.686  0.00  0.00    +0.059 A 
ATOM     28  N   LIG    1       -5.296  -3.914  -2.982  0.00  0.00    -0.243 NA
ATOM     29  C   LIG    1       -6.067  -4.934  -3.287  0.00  0.00    +0.109 A 
ATOM     30  S   LIG    1       -6.840  -5.661  -1.903  0.00  0.00    -0.075 S 
ATOM     31  C   LIG    1       -6.050  -4.489  -0.897  0.00  0.00    +0.071 A 
BRANCH  29  32
ATOM     32  C   LIG    1       -6.269  -5.440  -4.692  0.00  0.00    +0.007 A 
ATOM     33  C   LIG    1       -7.128  -6.513  -4.973  0.00  0.00    +0.012 A 
ATOM     34  C   LIG    1       -7.301  -6.961  -6.280  0.00  0.00    +0.020 A 
ATOM     35  C   LIG    1       -6.616  -6.341  -7.321  0.00  0.00    +0.041 A 
ATOM     36 CL   LIG    1       -6.830  -6.896  -8.941  0.00  0.00    -0.084 Cl
ATOM     37  C   LIG    1       -5.759  -5.274  -7.062  0.00  0.00    +0.020 A 
ATOM     38  C   LIG    1       -5.587  -4.827  -5.754  0.00  0.00    +0.012 A 
ENDBRANCH  29  32
ENDBRANCH  26  27
ENDBRANCH  25  26
ENDBRANCH   5  25
TORSDOF 12
