REMARK  Name = DB16403
REMARK                            x       y       z     vdW  Elec       q    Type
REMARK                         _______ _______ _______ _____ _____    ______ ____
ROOT
ATOM      1  C   LIG    1        1.726   1.342   0.205  0.00  0.00    +0.214 A 
ATOM      2  C   LIG    1        2.085   1.850  -1.141  0.00  0.00    +0.238 A 
ATOM      3  O   LIG    1        1.882   1.238  -2.190  0.00  0.00    -0.283 OA
ATOM      4  C   LIG    1        2.725   3.217  -1.116  0.00  0.00    +0.109 A 
ATOM      5  C   LIG    1        3.058   3.942  -2.282  0.00  0.00    +0.135 A 
ATOM      6  C   LIG    1        3.648   5.205  -2.187  0.00  0.00    +0.091 A 
ATOM      7  C   LIG    1        3.920   5.768  -0.944  0.00  0.00    +0.124 A 
ATOM      8  C   LIG    1        3.607   5.071   0.216  0.00  0.00    +0.092 A 
ATOM      9  C   LIG    1        3.019   3.812   0.127  0.00  0.00    +0.147 A 
ATOM     10  O   LIG    1        2.760   3.188   1.329  0.00  0.00    -0.451 OA
ATOM     11  C   LIG    1        2.092   2.004   1.329  0.00  0.00    +0.181 A 
ENDROOT
BRANCH  11  12
ATOM     12  C   LIG    1        1.930   1.514   2.720  0.00  0.00    +0.025 A 
ATOM     13  C   LIG    1        2.122   0.164   3.047  0.00  0.00    +0.060 A 
ATOM     14  C   LIG    1        1.936  -0.293   4.353  0.00  0.00    +0.159 A 
ATOM     15  C   LIG    1        1.557   0.605   5.358  0.00  0.00    +0.158 A 
ATOM     16  C   LIG    1        1.369   1.951   5.046  0.00  0.00    +0.050 A 
ATOM     17  C   LIG    1        1.555   2.400   3.739  0.00  0.00    +0.015 A 
BRANCH  14  18
ATOM     18  O   LIG    1        2.129  -1.624   4.629  0.00  0.00    -0.503 OA
ATOM     19  H   LIG    1        2.383  -2.137   3.859  0.00  0.00    +0.292 HD
ENDBRANCH  14  18
BRANCH  15  20
ATOM     20  O   LIG    1        1.364   0.186   6.650  0.00  0.00    -0.503 OA
ATOM     21  H   LIG    1        1.094   0.894   7.238  0.00  0.00    +0.292 HD
ENDBRANCH  15  20
ENDBRANCH  11  12
BRANCH   7  22
ATOM     22  O   LIG    1        4.497   7.007  -0.864  0.00  0.00    -0.507 OA
ATOM     23  H   LIG    1        4.668   7.392  -1.726  0.00  0.00    +0.292 HD
ENDBRANCH   7  22
BRANCH   5  24
ATOM     24  O   LIG    1        2.820   3.464  -3.546  0.00  0.00    -0.506 OA
ATOM     25  H   LIG    1        3.099   4.072  -4.234  0.00  0.00    +0.292 HD
ENDBRANCH   5  24
BRANCH   1  26
ATOM     26  O   LIG    1        1.115   0.123   0.293  0.00  0.00    -0.453 OA
BRANCH  26  30
ATOM     27  C   LIG    1       -2.051   1.000   0.150  0.00  0.00    +0.184 C 
ATOM     28  C   LIG    1       -1.817  -0.145   1.150  0.00  0.00    +0.180 C 
ATOM     29  C   LIG    1       -0.930  -1.113   0.368  0.00  0.00    +0.214 C 
ATOM     30  C   LIG    1       -0.070  -0.129  -0.427  0.00  0.00    +0.340 C 
ATOM     31  O   LIG    1       -0.877   1.000  -0.658  0.00  0.00    -0.331 OA
BRANCH  28  32
ATOM     32  O   LIG    1       -1.226   0.232   2.380  0.00  0.00    -0.386 OA
ATOM     33  H   LIG    1       -0.384   0.655   2.195  0.00  0.00    +0.210 HD
ENDBRANCH  28  32
BRANCH  29  34
ATOM     34  O   LIG    1       -1.647  -1.950  -0.523  0.00  0.00    -0.383 OA
ATOM     35  H   LIG    1       -2.194  -1.397  -1.086  0.00  0.00    +0.210 HD
ENDBRANCH  29  34
BRANCH  27  36
ATOM     36  C   LIG    1       -2.372   2.417   0.704  0.00  0.00    +0.171 C 
BRANCH  36  37
ATOM     37  O   LIG    1       -2.998   3.158  -0.330  0.00  0.00    -0.387 OA
ATOM     38  H   LIG    1       -2.369   3.269  -1.048  0.00  0.00    +0.210 HD
ENDBRANCH  36  37
BRANCH  36  39
ATOM     39  C   LIG    1       -1.160   3.225   1.225  0.00  0.00    +0.189 C 
BRANCH  39  40
ATOM     40  O   LIG    1       -1.568   4.402   1.895  0.00  0.00    -0.392 OA
ATOM     41  H   LIG    1       -0.786   4.871   2.195  0.00  0.00    +0.210 HD
ENDBRANCH  39  40
ENDBRANCH  36  39
ENDBRANCH  27  36
ENDBRANCH  26  30
ENDBRANCH   1  26
TORSDOF 13
