REMARK  Name = DB16130
REMARK                            x       y       z     vdW  Elec       q    Type
REMARK                         _______ _______ _______ _____ _____    ______ ____
ROOT
ATOM      1  C   LIG    1       -0.494   1.826  -0.000  0.00  0.00    +0.194 C 
ATOM      2  S   LIG    1       -0.043  -0.004   0.000  0.00  0.00    -0.033 S 
ATOM      3  O   LIG    1       -0.495  -0.584  -1.269  0.00  0.00    -0.175 OA
ATOM      4  O   LIG    1       -0.495  -0.584   1.269  0.00  0.00    -0.175 OA
ENDROOT
BRANCH   2   5
ATOM      5  C   LIG    1        1.844   0.001   0.000  0.00  0.00    +0.180 C 
BRANCH   5   6
ATOM      6  C   LIG    1        2.367  -1.441   0.000  0.00  0.00    +0.141 C 
BRANCH   6   7
ATOM      7  C   LIG    1        3.836  -1.517   0.000  0.00  0.00    +0.064 C 
ATOM      8  N   LIG    1        4.991  -1.577   0.000  0.00  0.00    -0.197 NA
ENDBRANCH   6   7
ENDBRANCH   5   6
ENDBRANCH   2   5
TORSDOF 3
