REMARK  Name = DB16390
REMARK                            x       y       z     vdW  Elec       q    Type
REMARK                         _______ _______ _______ _____ _____    ______ ____
ROOT
ATOM      1  N   LIG    1        0.616  -0.614  -1.245  0.00  0.00    -0.281 N 
ATOM      2  H   LIG    1        0.986  -1.510  -0.963  0.00  0.00    +0.155 HD
ENDROOT
BRANCH   1   8
ATOM      3  C   LIG    1       -1.486  -1.706  -0.773  0.00  0.00    +0.143 A 
ATOM      4  C   LIG    1       -2.877  -1.645  -0.588  0.00  0.00    +0.072 A 
ATOM      5  C   LIG    1       -3.593  -0.445  -0.708  0.00  0.00    +0.055 A 
ATOM      6  C   LIG    1       -2.886   0.723  -1.056  0.00  0.00    +0.057 A 
ATOM      7  C   LIG    1       -1.495   0.670  -1.219  0.00  0.00    +0.052 A 
ATOM      8  C   LIG    1       -0.786  -0.531  -1.092  0.00  0.00    +0.078 A 
BRANCH   6   9
ATOM      9  N   LIG    1       -3.571   1.946  -1.218  0.00  0.00    -0.280 N 
ATOM     10  H   LIG    1       -4.351   2.095  -0.595  0.00  0.00    +0.155 HD
ATOM     11  C   LIG    1       -3.389   2.846  -2.209  0.00  0.00    +0.241 C 
ATOM     12  O   LIG    1       -2.583   2.706  -3.132  0.00  0.00    -0.271 OA
BRANCH  11  13
ATOM     13  C   LIG    1       -4.239   4.006  -2.073  0.00  0.00    +0.060 C 
ATOM     14  C   LIG    1       -4.199   5.039  -2.936  0.00  0.00    +0.013 C 
ENDBRANCH  11  13
ENDBRANCH   6   9
BRANCH   3  16
ATOM     15  C   LIG    1       -1.425  -4.097  -0.331  0.00  0.00    +0.277 C 
ATOM     16  O   LIG    1       -0.758  -2.880  -0.647  0.00  0.00    -0.493 OA
ENDBRANCH   3  16
BRANCH   5  17
ATOM     17  N   LIG    1       -4.992  -0.427  -0.469  0.00  0.00    -0.330 N 
ATOM     18  C   LIG    1       -5.779  -1.577  -0.911  0.00  0.00    +0.129 C 
BRANCH  17  19
ATOM     19  C   LIG    1       -5.426   0.256   0.757  0.00  0.00    +0.120 C 
BRANCH  19  20
ATOM     20  C   LIG    1       -4.876  -0.322   2.088  0.00  0.00    +0.102 C 
BRANCH  20  21
ATOM     21  N   LIG    1       -5.207  -1.730   2.330  0.00  0.00    -0.307 NA
ATOM     22  C   LIG    1       -6.637  -1.918   2.565  0.00  0.00    +0.104 C 
ATOM     23  C   LIG    1       -4.459  -2.226   3.482  0.00  0.00    +0.104 C 
ENDBRANCH  20  21
ENDBRANCH  19  20
ENDBRANCH  17  19
ENDBRANCH   5  17
ENDBRANCH   1   8
BRANCH   1  24
ATOM     24  C   LIG    1        1.617   0.273  -1.674  0.00  0.00    +0.220 A 
ATOM     25  N   LIG    1        1.288   1.483  -2.190  0.00  0.00    -0.213 NA
ATOM     26  C   LIG    1        2.293   2.312  -2.577  0.00  0.00    +0.092 A 
ATOM     27  C   LIG    1        3.651   1.921  -2.493  0.00  0.00    +0.103 A 
ATOM     28  C   LIG    1        3.883   0.651  -1.941  0.00  0.00    +0.131 A 
ATOM     29  N   LIG    1        2.887  -0.179  -1.536  0.00  0.00    -0.222 NA
BRANCH  26  30
ATOM     30  C   LIG    1        1.770   3.628  -3.050  0.00  0.00    +0.027 A 
ATOM     31  C   LIG    1        0.792   3.857  -4.081  0.00  0.00    +0.009 A 
ATOM     32  C   LIG    1        0.052   3.015  -4.927  0.00  0.00    +0.010 A 
ATOM     33  C   LIG    1       -0.840   3.577  -5.836  0.00  0.00    +0.001 A 
ATOM     34  C   LIG    1       -1.007   4.955  -5.921  0.00  0.00    +0.002 A 
ATOM     35  C   LIG    1       -0.290   5.834  -5.109  0.00  0.00    +0.026 A 
ATOM     36  C   LIG    1        0.611   5.272  -4.194  0.00  0.00    +0.049 A 
ATOM     37  N   LIG    1        1.462   5.865  -3.277  0.00  0.00    -0.349 N 
ATOM     38  C   LIG    1        1.611   7.293  -3.049  0.00  0.00    +0.149 C 
ATOM     39  C   LIG    1        2.138   4.881  -2.598  0.00  0.00    +0.096 A 
ENDBRANCH  26  30
BRANCH  27  40
ATOM     40  C   LIG    1        4.827   2.744  -2.929  0.00  0.00    +0.343 C 
ATOM     41  O   LIG    1        5.974   2.563  -2.512  0.00  0.00    -0.245 OA
BRANCH  40  42
ATOM     42  O   LIG    1        4.518   3.621  -3.917  0.00  0.00    -0.458 OA
BRANCH  42  43
ATOM     43  C   LIG    1        5.472   4.521  -4.480  0.00  0.00    +0.171 C 
ATOM     44  C   LIG    1        4.906   4.993  -5.827  0.00  0.00    +0.052 C 
ATOM     45  C   LIG    1        5.743   5.706  -3.532  0.00  0.00    +0.052 C 
ENDBRANCH  42  43
ENDBRANCH  40  42
ENDBRANCH  27  40
ENDBRANCH   1  24
TORSDOF 13
