REMARK  Name = DB16134
REMARK                            x       y       z     vdW  Elec       q    Type
REMARK                         _______ _______ _______ _____ _____    ______ ____
ROOT
ATOM      1  C   LIG    1       -0.132  -0.234  -0.281  0.00  0.00    +0.025 C 
ENDROOT
BRANCH   1   2
ATOM      2  C   LIG    1       -0.816   1.168  -0.285  0.00  0.00    +0.203 C 
ATOM      3  N   LIG    1       -1.705   1.476   0.693  0.00  0.00    -0.284 N 
ATOM      4  C   LIG    1       -2.253   2.836   0.864  0.00  0.00    +0.182 C 
ATOM      5  C   LIG    1       -3.192   2.708   2.069  0.00  0.00    +0.076 C 
ATOM      6  C   LIG    1       -3.561   1.238   2.092  0.00  0.00    +0.186 C 
ATOM      7  F   LIG    1       -3.879   0.848   3.327  0.00  0.00    -0.244 F 
ATOM      8  C   LIG    1       -2.303   0.511   1.625  0.00  0.00    +0.146 C 
ATOM      9  O   LIG    1       -0.457   1.996  -1.129  0.00  0.00    -0.277 OA
BRANCH   4  10
ATOM     10  C   LIG    1       -1.209   3.855   1.089  0.00  0.00    +0.085 C 
ATOM     11  N   LIG    1       -0.389   4.653   1.266  0.00  0.00    -0.195 NA
ENDBRANCH   4  10
ENDBRANCH   1   2
BRANCH   1  12
ATOM     12  N   LIG    1       -0.490  -0.833  -1.617  0.00  0.00    +0.386 N 
ATOM     13  H   LIG    1       -0.224  -0.186  -2.346  0.00  0.00    -0.089 HD
ATOM     14  H   LIG    1        0.016  -1.700  -1.732  0.00  0.00    -0.089 HD
ATOM     15  H   LIG    1       -1.485  -1.007  -1.651  0.00  0.00    -0.089 HD
ENDBRANCH   1  12
BRANCH   1  16
ATOM     16  C   LIG    1        1.412  -0.153  -0.002  0.00  0.00    +0.043 C 
BRANCH  16  17
ATOM     17  C   LIG    1        1.744   0.616   1.287  0.00  0.00    -0.041 A 
ATOM     18  C   LIG    1        1.220   0.211   2.521  0.00  0.00    +0.007 A 
ATOM     19  C   LIG    1        1.493   0.944   3.673  0.00  0.00    +0.038 A 
ATOM     20  C   LIG    1        2.288   2.084   3.595  0.00  0.00    +0.123 A 
ATOM     21  F   LIG    1        2.551   2.797   4.713  0.00  0.00    -0.205 F 
ATOM     22  C   LIG    1        2.812   2.498   2.373  0.00  0.00    +0.038 A 
ATOM     23  C   LIG    1        2.539   1.766   1.221  0.00  0.00    +0.007 A 
ENDBRANCH  16  17
BRANCH  16  24
ATOM     24  C   LIG    1        2.120  -1.518  -0.055  0.00  0.00    -0.041 A 
ATOM     25  C   LIG    1        1.643  -2.612   0.679  0.00  0.00    +0.007 A 
ATOM     26  C   LIG    1        2.294  -3.841   0.611  0.00  0.00    +0.038 A 
ATOM     27  C   LIG    1        3.421  -3.982  -0.196  0.00  0.00    +0.123 A 
ATOM     28  F   LIG    1        4.053  -5.175  -0.262  0.00  0.00    -0.205 F 
ATOM     29  C   LIG    1        3.899  -2.904  -0.937  0.00  0.00    +0.038 A 
ATOM     30  C   LIG    1        3.248  -1.676  -0.869  0.00  0.00    +0.007 A 
ENDBRANCH  16  24
ENDBRANCH   1  16
TORSDOF 6
