REMARK  Name = DB16058
REMARK                            x       y       z     vdW  Elec       q    Type
REMARK                         _______ _______ _______ _____ _____    ______ ____
ROOT
ATOM      1  C   LIG    1       -2.110   1.172   0.020  0.00  0.00    +0.026 A 
ATOM      2  C   LIG    1       -0.713   1.120  -0.063  0.00  0.00    +0.016 A 
ATOM      3  C   LIG    1       -0.037  -0.100  -0.131  0.00  0.00    -0.044 A 
ATOM      4  C   LIG    1       -0.766  -1.290  -0.118  0.00  0.00    +0.030 A 
ATOM      5  C   LIG    1       -2.157  -1.263  -0.029  0.00  0.00    +0.068 A 
ATOM      6  C   LIG    1       -2.835  -0.037   0.058  0.00  0.00    +0.149 A 
ENDROOT
BRANCH   1  12
ATOM      7  C   LIG    1       -4.924   7.307   0.753  0.00  0.00    +0.173 C 
ATOM      8  N   LIG    1       -4.890   6.062   0.003  0.00  0.00    -0.267 N 
ATOM      9  C   LIG    1       -4.067   4.966   0.197  0.00  0.00    +0.069 A 
ATOM     10  C   LIG    1       -3.036   4.701   1.103  0.00  0.00    +0.028 A 
ATOM     11  C   LIG    1       -2.416   3.454   1.006  0.00  0.00    +0.011 A 
ATOM     12  C   LIG    1       -2.792   2.496   0.057  0.00  0.00    -0.014 A 
ATOM     13  C   LIG    1       -3.817   2.786  -0.852  0.00  0.00    +0.020 A 
ATOM     14  C   LIG    1       -4.468   4.025  -0.782  0.00  0.00    +0.020 A 
ATOM     15  C   LIG    1       -5.529   4.670  -1.483  0.00  0.00    +0.143 A 
ATOM     16  N   LIG    1       -5.766   5.863  -1.002  0.00  0.00    -0.179 NA
ENDBRANCH   1  12
BRANCH   5  17
ATOM     17  N   LIG    1       -2.856  -2.473  -0.021  0.00  0.00    -0.355 N 
ATOM     18  H   LIG    1       -3.865  -2.459   0.019  0.00  0.00    +0.142 HD
ATOM     19  H   LIG    1       -2.348  -3.342  -0.095  0.00  0.00    +0.142 HD
ENDBRANCH   5  17
BRANCH   3  20
ATOM     20  C   LIG    1        1.482  -0.129  -0.222  0.00  0.00    +0.046 C 
BRANCH  20  21
ATOM     21  C   LIG    1        2.164  -0.015   1.167  0.00  0.00    +0.125 C 
BRANCH  21  22
ATOM     22  C   LIG    1        3.712   0.009   1.140  0.00  0.00    +0.305 C 
ATOM     23  O   LIG    1        4.276   0.273   2.226  0.00  0.00    -0.251 OA
BRANCH  22  24
ATOM     24  O   LIG    1        4.326  -0.243   0.077  0.00  0.00    -0.481 OA
ATOM     25  H   LIG    1        5.263  -0.228   0.063  0.00  0.00    +0.295 HD
ENDBRANCH  22  24
ENDBRANCH  21  22
ENDBRANCH  20  21
ENDBRANCH   3  20
BRANCH   6  26
ATOM     26  O   LIG    1       -4.210  -0.035   0.168  0.00  0.00    -0.486 OA
BRANCH  26  27
ATOM     27  C   LIG    1       -4.731   0.289   1.461  0.00  0.00    +0.182 C 
ATOM     28  C   LIG    1       -5.959   1.195   1.293  0.00  0.00    +0.080 C 
ATOM     29  C   LIG    1       -6.974   0.629   2.258  0.00  0.00    -0.041 A 
ATOM     30  C   LIG    1       -8.224   1.134   2.618  0.00  0.00    +0.004 A 
ATOM     31  C   LIG    1       -9.043   0.410   3.487  0.00  0.00    +0.000 A 
ATOM     32  C   LIG    1       -8.622  -0.829   3.974  0.00  0.00    +0.000 A 
ATOM     33  C   LIG    1       -7.383  -1.346   3.595  0.00  0.00    +0.004 A 
ATOM     34  C   LIG    1       -6.553  -0.611   2.747  0.00  0.00    -0.041 A 
ATOM     35  C   LIG    1       -5.217  -0.993   2.152  0.00  0.00    +0.080 C 
ENDBRANCH  26  27
ENDBRANCH   6  26
TORSDOF 8
