REMARK  Name = DB16237
REMARK                            x       y       z     vdW  Elec       q    Type
REMARK                         _______ _______ _______ _____ _____    ______ ____
ROOT
ATOM      1  C   LIG    1        1.528  -0.119  -0.033  0.00  0.00    +0.070 C 
ATOM      2  C   LIG    1        2.373  -1.423   0.033  0.00  0.00    +0.096 C 
ATOM      3  C   LIG    1        3.904  -1.093   0.137  0.00  0.00    +0.043 C 
ATOM      4  C   LIG    1        4.338   0.202   0.165  0.00  0.00    +0.014 C 
ATOM      5  C   LIG    1        5.780   0.714   0.183  0.00  0.00    +0.061 C 
ATOM      6  N   LIG    1        3.444   1.246   0.094  0.00  0.00    -0.317 N 
ATOM      7  H   LIG    1        3.823   2.181   0.143  0.00  0.00    +0.152 HD
ATOM      8  C   LIG    1        2.075   1.129  -0.005  0.00  0.00    +0.049 C 
ENDROOT
BRANCH   2   9
ATOM      9  C   LIG    1        1.853  -2.440   1.077  0.00  0.00    -0.017 A 
ATOM     10  C   LIG    1        1.902  -2.187   2.463  0.00  0.00    +0.045 A 
ATOM     11 CL   LIG    1        2.538  -0.712   3.108  0.00  0.00    -0.083 Cl
ATOM     12  C   LIG    1        1.413  -3.134   3.365  0.00  0.00    +0.020 A 
ATOM     13  C   LIG    1        0.873  -4.334   2.907  0.00  0.00    +0.001 A 
ATOM     14  C   LIG    1        0.819  -4.593   1.540  0.00  0.00    +0.000 A 
ATOM     15  C   LIG    1        1.303  -3.652   0.633  0.00  0.00    +0.006 A 
ENDBRANCH   2   9
BRANCH   8  16
ATOM     16  C   LIG    1        1.338   2.427  -0.040  0.00  0.00    -0.003 A 
ATOM     17  C   LIG    1        1.769   3.455  -0.890  0.00  0.00    +0.012 A 
ATOM     18  C   LIG    1        1.089   4.668  -0.944  0.00  0.00    +0.027 A 
ATOM     19  C   LIG    1       -0.040   4.867  -0.145  0.00  0.00    +0.048 A 
ATOM     20  C   LIG    1       -0.463   3.864   0.730  0.00  0.00    +0.027 A 
ATOM     21  C   LIG    1        0.223   2.655   0.779  0.00  0.00    +0.012 A 
BRANCH  19  22
ATOM     22  N   LIG    1       -0.722   6.102  -0.185  0.00  0.00    -0.296 N 
ATOM     23  C   LIG    1       -0.158   7.366  -0.097  0.00  0.00    +0.076 A 
ATOM     24  C   LIG    1        1.145   7.848   0.098  0.00  0.00    +0.048 A 
ATOM     25  C   LIG    1        1.276   9.239   0.137  0.00  0.00    +0.113 A 
ATOM     26  N   LIG    1        0.248  10.116   0.003  0.00  0.00    -0.261 NA
ATOM     27  C   LIG    1       -1.005   9.630  -0.184  0.00  0.00    +0.140 A 
ATOM     28  C   LIG    1       -1.254   8.252  -0.241  0.00  0.00    +0.108 A 
ATOM     29  N   LIG    1       -2.424   7.573  -0.425  0.00  0.00    -0.231 NA
ATOM     30  C   LIG    1       -2.079   6.309  -0.404  0.00  0.00    +0.112 A 
ATOM     31  C   LIG    1       -3.082   5.193  -0.629  0.00  0.00    +0.086 C 
ENDBRANCH  19  22
ENDBRANCH   8  16
BRANCH   3  32
ATOM     32  C   LIG    1        4.839  -2.224   0.213  0.00  0.00    +0.248 C 
ATOM     33  N   LIG    1        4.394  -3.355  -0.381  0.00  0.00    -0.267 N 
ATOM     34  H   LIG    1        3.481  -3.296  -0.808  0.00  0.00    +0.157 HD
ATOM     35  O   LIG    1        5.922  -2.143   0.793  0.00  0.00    -0.270 OA
BRANCH  33  36
ATOM     36  C   LIG    1        4.980  -4.628  -0.484  0.00  0.00    +0.125 A 
ATOM     37  C   LIG    1        6.266  -4.968  -0.024  0.00  0.00    +0.044 A 
ATOM     38  C   LIG    1        6.714  -6.280  -0.188  0.00  0.00    +0.005 A 
ATOM     39  C   LIG    1        5.886  -7.222  -0.800  0.00  0.00    +0.020 A 
ATOM     40  C   LIG    1        4.625  -6.814  -1.232  0.00  0.00    +0.113 A 
ATOM     41  N   LIG    1        4.172  -5.543  -1.082  0.00  0.00    -0.240 NA
ENDBRANCH  33  36
ENDBRANCH   3  32
BRANCH   1  42
ATOM     42  C   LIG    1        0.087  -0.317  -0.244  0.00  0.00    +0.338 C 
ATOM     43  O   LIG    1       -0.450  -0.158  -1.341  0.00  0.00    -0.245 OA
BRANCH  42  44
ATOM     44  O   LIG    1       -0.553  -0.667   0.892  0.00  0.00    -0.462 OA
BRANCH  44  46
ATOM     45  C   LIG    1       -2.358  -1.401   2.295  0.00  0.00    +0.048 C 
ATOM     46  C   LIG    1       -1.950  -0.918   0.900  0.00  0.00    +0.229 C 
ENDBRANCH  44  46
ENDBRANCH  42  44
ENDBRANCH   1  42
TORSDOF 8
