REMARK  Name = DB16823
REMARK                            x       y       z     vdW  Elec       q    Type
REMARK                         _______ _______ _______ _____ _____    ______ ____
ROOT
ATOM      1  C   LIG    1        1.604  -0.094   0.262  0.00  0.00    +0.228 A 
ATOM      2  N   LIG    1        2.393  -0.924   0.920  0.00  0.00    -0.126 NA
ATOM      3  N   LIG    1        3.628  -0.989   0.296  0.00  0.00    -0.128 NA
ATOM      4  C   LIG    1        3.546  -0.197  -0.795  0.00  0.00    +0.178 A 
ATOM      5  C   LIG    1        4.454   0.129  -1.816  0.00  0.00    +0.052 A 
ATOM      6  C   LIG    1        4.025   0.999  -2.822  0.00  0.00    +0.034 A 
ATOM      7  C   LIG    1        2.722   1.510  -2.795  0.00  0.00    +0.095 A 
ATOM      8  N   LIG    1        1.820   1.202  -1.825  0.00  0.00    -0.163 NA
ATOM      9  N   LIG    1        2.267   0.377  -0.861  0.00  0.00    -0.191 N 
ENDROOT
BRANCH   7  10
ATOM     10  C   LIG    1        2.224   2.454  -3.841  0.00  0.00    +0.039 A 
ATOM     11  C   LIG    1        0.949   3.036  -3.964  0.00  0.00    +0.144 A 
ATOM     12  N   LIG    1        0.830   3.839  -4.995  0.00  0.00    -0.179 NA
ATOM     13  N   LIG    1        2.032   3.804  -5.590  0.00  0.00    -0.268 N 
ATOM     14  C   LIG    1        2.907   2.980  -4.929  0.00  0.00    +0.118 A 
BRANCH  13  15
ATOM     15  C   LIG    1        2.310   4.588  -6.795  0.00  0.00    +0.107 C 
ATOM     16  C   LIG    1        1.202   4.855  -7.796  0.00  0.00    +0.029 C 
ATOM     17  C   LIG    1        1.723   5.979  -6.935  0.00  0.00    +0.029 C 
ENDBRANCH  13  15
ENDBRANCH   7  10
BRANCH   1  18
ATOM     18  C   LIG    1        0.150   0.199   0.646  0.00  0.00    +0.336 C 
ATOM     19  F   LIG    1        0.001   0.176   1.973  0.00  0.00    -0.191 F 
ATOM     20  F   LIG    1       -0.633  -0.774   0.173  0.00  0.00    -0.191 F 
BRANCH  18  21
ATOM     21  C   LIG    1       -0.359   1.572   0.178  0.00  0.00    +0.064 A 
ATOM     22  C   LIG    1        0.223   2.739   0.692  0.00  0.00    +0.135 A 
ATOM     23  F   LIG    1        1.204   2.653   1.621  0.00  0.00    -0.205 F 
ATOM     24  C   LIG    1       -0.165   4.004   0.255  0.00  0.00    +0.069 A 
ATOM     25  C   LIG    1       -1.159   4.101  -0.728  0.00  0.00    +0.095 A 
ATOM     26  N   LIG    1       -1.651   5.242  -1.300  0.00  0.00    -0.171 NA
ATOM     27  N   LIG    1       -2.558   4.781  -2.180  0.00  0.00    -0.273 N 
ATOM     28  C   LIG    1       -3.288   5.746  -2.984  0.00  0.00    +0.172 C 
ATOM     29  C   LIG    1       -2.701   3.414  -2.199  0.00  0.00    +0.116 A 
ATOM     30  C   LIG    1       -1.773   2.922  -1.247  0.00  0.00    +0.020 A 
ATOM     31  C   LIG    1       -1.378   1.660  -0.782  0.00  0.00    +0.024 A 
ENDBRANCH  18  21
ENDBRANCH   1  18
TORSDOF 4
