REMARK  Name = DB16054
REMARK                            x       y       z     vdW  Elec       q    Type
REMARK                         _______ _______ _______ _____ _____    ______ ____
ROOT
ATOM      1  C   LIG    1        1.513  -0.144  -0.149  0.00  0.00    +0.030 A 
ATOM      2  C   LIG    1        2.239  -0.454   1.008  0.00  0.00    +0.039 A 
ATOM      3  C   LIG    1        3.635  -0.447   1.013  0.00  0.00    +0.090 A 
ATOM      4  C   LIG    1        4.335  -0.120  -0.151  0.00  0.00    +0.054 A 
ATOM      5  C   LIG    1        3.643   0.180  -1.333  0.00  0.00    +0.081 A 
ATOM      6  N   LIG    1        4.282   0.545  -2.544  0.00  0.00    -0.268 N 
ATOM      7  C   LIG    1        5.707   0.915  -2.476  0.00  0.00    +0.138 C 
ATOM      8  C   LIG    1        3.687   0.528  -3.775  0.00  0.00    +0.263 C 
ATOM      9  O   LIG    1        4.234   0.864  -4.830  0.00  0.00    -0.271 OA
ATOM     10  C   LIG    1        2.192   0.049  -3.700  0.00  0.00    +0.181 C 
ATOM     11  C   LIG    1        1.393   0.735  -4.831  0.00  0.00    +0.065 C 
ATOM     12  C   LIG    1        2.200  -1.502  -3.774  0.00  0.00    +0.065 C 
ATOM     13  O   LIG    1        1.570   0.491  -2.474  0.00  0.00    -0.475 OA
ATOM     14  C   LIG    1        2.242   0.172  -1.310  0.00  0.00    +0.151 A 
ENDROOT
BRANCH   1  25
ATOM     15  C   LIG    1       -2.735   1.977  -1.534  0.00  0.00    +0.152 C 
ATOM     16  N   LIG    1       -2.094   0.906  -0.757  0.00  0.00    -0.316 N 
ATOM     17  C   LIG    1       -2.923   0.090  -0.006  0.00  0.00    +0.275 A 
ATOM     18  O   LIG    1       -4.143   0.247   0.094  0.00  0.00    -0.265 OA
ATOM     19  C   LIG    1       -2.160  -0.990   0.619  0.00  0.00    +0.112 A 
ATOM     20  N   LIG    1       -2.672  -2.031   1.355  0.00  0.00    -0.356 N 
ATOM     21  H   LIG    1       -3.654  -2.178   1.542  0.00  0.00    +0.165 HD
ATOM     22  C   LIG    1       -1.657  -2.848   1.783  0.00  0.00    +0.084 A 
ATOM     23  C   LIG    1       -0.462  -2.317   1.323  0.00  0.00    +0.028 A 
ATOM     24  C   LIG    1       -0.762  -1.145   0.612  0.00  0.00    +0.014 A 
ATOM     25  C   LIG    1        0.026  -0.135  -0.100  0.00  0.00    +0.011 A 
ATOM     26  C   LIG    1       -0.721   0.798  -0.735  0.00  0.00    +0.098 A 
ENDBRANCH   1  25
BRANCH   3  27
ATOM     27  S   LIG    1        4.521  -0.827   2.522  0.00  0.00    -0.006 S 
ATOM     28  O   LIG    1        5.887  -1.216   2.151  0.00  0.00    -0.170 OA
ATOM     29  O   LIG    1        3.680  -1.735   3.308  0.00  0.00    -0.170 OA
ATOM     30  C   LIG    1        4.592   0.838   3.404  0.00  0.00    +0.200 C 
ENDBRANCH   3  27
TORSDOF 2
