REMARK  Name = DB16256
REMARK                            x       y       z     vdW  Elec       q    Type
REMARK                         _______ _______ _______ _____ _____    ______ ____
ROOT
ATOM      1  C   LIG    1       -1.874   3.790   0.072  0.00  0.00    +0.036 A 
ATOM      2  C   LIG    1       -1.192   3.325   1.208  0.00  0.00    +0.027 A 
ATOM      3  C   LIG    1       -0.539   2.093   1.179  0.00  0.00    +0.051 A 
ATOM      4  C   LIG    1       -0.548   1.317   0.016  0.00  0.00    +0.164 A 
ATOM      5  C   LIG    1       -1.214   1.783  -1.120  0.00  0.00    +0.167 A 
ATOM      6  F   LIG    1       -1.227   1.044  -2.253  0.00  0.00    -0.202 F 
ATOM      7  C   LIG    1       -1.867   3.016  -1.093  0.00  0.00    +0.065 A 
ENDROOT
BRANCH   1   9
ATOM      8  C   LIG    1       -3.096   5.737   1.017  0.00  0.00    +0.236 C 
ATOM      9  N   LIG    1       -2.541   5.026   0.008  0.00  0.00    -0.284 N 
ATOM     10  H   LIG    1       -2.686   5.385  -0.924  0.00  0.00    +0.155 HD
ATOM     11  O   LIG    1       -3.114   5.361   2.191  0.00  0.00    -0.274 OA
BRANCH   8  16
ATOM     12  C   LIG    1       -3.630  10.414   0.595  0.00  0.00    +0.129 C 
ATOM     13  N   LIG    1       -4.309   9.117   0.705  0.00  0.00    -0.214 NA
ATOM     14  C   LIG    1       -3.674   8.094   1.392  0.00  0.00    +0.082 C 
ATOM     15  C   LIG    1       -3.144   8.377   2.797  0.00  0.00    +0.033 C 
ATOM     16  C   LIG    1       -3.681   6.999   0.588  0.00  0.00    +0.170 C 
ATOM     17  C   LIG    1       -4.332   7.340  -0.668  0.00  0.00    +0.252 C 
ATOM     18  O   LIG    1       -4.536   6.603  -1.636  0.00  0.00    -0.273 OA
ATOM     19  N   LIG    1       -4.694   8.631  -0.539  0.00  0.00    -0.201 N 
BRANCH  19  20
ATOM     20  C   LIG    1       -5.497   9.371  -1.441  0.00  0.00    +0.053 A 
ATOM     21  C   LIG    1       -5.213   9.371  -2.815  0.00  0.00    +0.025 A 
ATOM     22  C   LIG    1       -6.006  10.107  -3.691  0.00  0.00    +0.002 A 
ATOM     23  C   LIG    1       -7.081  10.843  -3.198  0.00  0.00    +0.000 A 
ATOM     24  C   LIG    1       -7.371  10.852  -1.836  0.00  0.00    +0.002 A 
ATOM     25  C   LIG    1       -6.581  10.116  -0.957  0.00  0.00    +0.025 A 
ENDBRANCH  19  20
ENDBRANCH   8  16
ENDBRANCH   1   9
BRANCH   4  26
ATOM     26  O   LIG    1        0.091   0.100  -0.012  0.00  0.00    -0.452 OA
BRANCH  26  27
ATOM     27  C   LIG    1        1.466   0.085   0.063  0.00  0.00    +0.139 A 
ATOM     28  C   LIG    1        2.117  -0.619   1.113  0.00  0.00    +0.043 A 
ATOM     29  C   LIG    1        1.416  -1.310   2.132  0.00  0.00    +0.017 A 
ATOM     30  C   LIG    1        2.110  -1.968   3.144  0.00  0.00    +0.046 A 
ATOM     31  C   LIG    1        3.512  -1.968   3.180  0.00  0.00    +0.123 A 
ATOM     32  C   LIG    1        4.220  -1.300   2.181  0.00  0.00    +0.074 A 
ATOM     33  C   LIG    1        3.545  -0.616   1.142  0.00  0.00    +0.078 A 
ATOM     34  N   LIG    1        4.285   0.029   0.197  0.00  0.00    -0.255 NA
ATOM     35  C   LIG    1        3.633   0.685  -0.792  0.00  0.00    +0.115 A 
ATOM     36  C   LIG    1        2.247   0.737  -0.897  0.00  0.00    +0.066 A 
BRANCH  31  37
ATOM     37  O   LIG    1        4.266  -2.595   4.153  0.00  0.00    -0.489 OA
BRANCH  37  38
ATOM     38  C   LIG    1        3.613  -3.211   5.263  0.00  0.00    +0.263 C 
BRANCH  38  39
ATOM     39  C   LIG    1        4.645  -3.789   6.261  0.00  0.00    +0.094 C 
ATOM     40  C   LIG    1        3.937  -4.370   7.501  0.00  0.00    +0.044 C 
ATOM     41  C   LIG    1        5.702  -2.743   6.675  0.00  0.00    +0.044 C 
BRANCH  39  42
ATOM     42  O   LIG    1        5.318  -4.862   5.628  0.00  0.00    -0.386 OA
ATOM     43  H   LIG    1        5.963  -5.221   6.242  0.00  0.00    +0.210 HD
ENDBRANCH  39  42
ENDBRANCH  38  39
ENDBRANCH  37  38
ENDBRANCH  31  37
ENDBRANCH  26  27
ENDBRANCH   4  26
TORSDOF 9
