REMARK  Name = DB16963
REMARK                            x       y       z     vdW  Elec       q    Type
REMARK                         _______ _______ _______ _____ _____    ______ ____
ROOT
ATOM      1  N   LIG    1       -0.680   1.059   0.000  0.00  0.00    -0.184 NA
ATOM      2  C   LIG    1       -0.020  -0.039   0.000  0.00  0.00    +0.079 C 
ATOM      3  C   LIG    1       -0.684  -1.438   0.000  0.00  0.00    +0.069 C 
ENDROOT
BRANCH   2   4
ATOM      4  C   LIG    1        1.520   0.039   0.000  0.00  0.00    +0.079 C 
ATOM      5  N   LIG    1        2.180  -1.059   0.000  0.00  0.00    -0.184 NA
ATOM      6  C   LIG    1        2.184   1.438   0.000  0.00  0.00    +0.069 C 
BRANCH   5   7
ATOM      7  N   LIG    1        3.534  -0.968   0.000  0.00  0.00    -0.218 N 
ATOM      8  H   LIG    1        3.896  -0.025   0.000  0.00  0.00    +0.176 HD
BRANCH   7   9
ATOM      9  C   LIG    1        4.404  -2.023   0.000  0.00  0.00    +0.150 C 
ATOM     10  S   LIG    1        3.946  -3.646   0.000  0.00  0.00    -0.017 S 
BRANCH   9  11
ATOM     11  N   LIG    1        5.699  -1.586   0.000  0.00  0.00    -0.328 N 
ATOM     12  H   LIG    1        5.868  -0.590   0.000  0.00  0.00    +0.147 HD
ATOM     13  C   LIG    1        6.878  -2.455   0.000  0.00  0.00    +0.127 C 
ENDBRANCH   9  11
ENDBRANCH   7   9
ENDBRANCH   5   7
ENDBRANCH   2   4
BRANCH   1  14
ATOM     14  N   LIG    1       -2.034   0.968   0.000  0.00  0.00    -0.218 N 
ATOM     15  H   LIG    1       -2.396   0.025   0.000  0.00  0.00    +0.176 HD
BRANCH  14  16
ATOM     16  C   LIG    1       -2.904   2.022   0.000  0.00  0.00    +0.150 C 
ATOM     17  S   LIG    1       -2.446   3.646   0.000  0.00  0.00    -0.017 S 
BRANCH  16  19
ATOM     18  C   LIG    1       -5.378   2.455   0.000  0.00  0.00    +0.127 C 
ATOM     19  N   LIG    1       -4.199   1.586   0.000  0.00  0.00    -0.328 N 
ATOM     20  H   LIG    1       -4.367   0.590   0.000  0.00  0.00    +0.147 HD
ENDBRANCH  16  19
ENDBRANCH  14  16
ENDBRANCH   1  14
TORSDOF 7
