REMARK  Name = DB16095
REMARK                            x       y       z     vdW  Elec       q    Type
REMARK                         _______ _______ _______ _____ _____    ______ ____
ROOT
ATOM      1  C   LIG    1        1.621  -0.109  -0.997  0.00  0.00    +0.107 A 
ATOM      2  C   LIG    1        2.053   0.153  -2.301  0.00  0.00    +0.028 A 
ATOM      3  C   LIG    1        3.359   0.583  -2.533  0.00  0.00    +0.004 A 
ATOM      4  C   LIG    1        4.230   0.781  -1.463  0.00  0.00    +0.028 A 
ATOM      5  C   LIG    1        3.800   0.530  -0.157  0.00  0.00    +0.107 A 
ATOM      6  C   LIG    1        2.510   0.049   0.070  0.00  0.00    +0.057 A 
ENDROOT
BRANCH   1   7
ATOM      7  S   LIG    1       -0.064  -0.630  -0.689  0.00  0.00    +0.061 S 
ATOM      8  O   LIG    1       -0.731  -0.722  -1.994  0.00  0.00    -0.153 OA
ATOM      9  O   LIG    1        0.016  -1.811   0.176  0.00  0.00    -0.153 OA
BRANCH   7  13
ATOM     10  C   LIG    1       -0.305   3.529   1.737  0.00  0.00    +0.078 C 
ATOM     11  C   LIG    1        0.454   2.179   1.826  0.00  0.00    +0.039 C 
ATOM     12  C   LIG    1       -0.388   0.898   1.644  0.00  0.00    +0.111 C 
ATOM     13  N   LIG    1       -0.831   0.682   0.239  0.00  0.00    -0.174 NA
ATOM     14  C   LIG    1       -2.242   1.019  -0.103  0.00  0.00    +0.141 C 
ATOM     15  C   LIG    1       -2.680   2.451   0.288  0.00  0.00    +0.175 C 
ATOM     16  C   LIG    1       -1.737   3.517  -0.338  0.00  0.00    +0.238 C 
ATOM     17  O   LIG    1       -2.007   3.933  -1.468  0.00  0.00    -0.273 OA
ATOM     18  N   LIG    1       -0.629   3.914   0.349  0.00  0.00    -0.285 N 
ATOM     19  C   LIG    1        0.369   4.862  -0.205  0.00  0.00    +0.162 C 
ATOM     20  C   LIG    1        1.326   5.151   0.968  0.00  0.00    +0.034 C 
ATOM     21  C   LIG    1        0.555   4.711   2.198  0.00  0.00    +0.025 C 
BRANCH  15  22
ATOM     22  N   LIG    1       -4.082   2.660  -0.086  0.00  0.00    -0.304 N 
ATOM     23  H   LIG    1       -4.462   1.991  -0.741  0.00  0.00    +0.149 HD
ATOM     24  C   LIG    1       -4.852   3.678   0.336  0.00  0.00    +0.199 C 
ATOM     25  O   LIG    1       -4.466   4.547   1.124  0.00  0.00    -0.278 OA
BRANCH  24  26
ATOM     26  C   LIG    1       -6.282   3.709  -0.260  0.00  0.00    +0.012 C 
ATOM     27  C   LIG    1       -6.315   4.520  -1.570  0.00  0.00    -0.004 C 
BRANCH  26  28
ATOM     28  N   LIG    1       -7.209   4.335   0.756  0.00  0.00    +0.385 N 
ATOM     29  H   LIG    1       -8.068   4.543   0.268  0.00  0.00    -0.085 HD
ATOM     30  H   LIG    1       -6.795   5.211   1.044  0.00  0.00    -0.085 HD
ATOM     31  C   LIG    1       -7.552   3.474   1.985  0.00  0.00    -0.099 C 
ENDBRANCH  26  28
ENDBRANCH  24  26
ENDBRANCH  15  22
BRANCH  19  32
ATOM     32  C   LIG    1        1.129   4.296  -1.429  0.00  0.00    +0.234 C 
ATOM     33  N   LIG    1        1.111   5.048  -2.545  0.00  0.00    -0.303 N 
ATOM     34  H   LIG    1        0.658   5.949  -2.505  0.00  0.00    +0.150 HD
ATOM     35  O   LIG    1        1.748   3.235  -1.342  0.00  0.00    -0.274 OA
BRANCH  33  36
ATOM     36  C   LIG    1        1.753   4.712  -3.824  0.00  0.00    +0.134 C 
BRANCH  36  37
ATOM     37  C   LIG    1        1.264   3.413  -4.489  0.00  0.00    -0.023 A 
ATOM     38  C   LIG    1       -0.057   2.969  -4.340  0.00  0.00    +0.006 A 
ATOM     39  C   LIG    1       -0.467   1.776  -4.929  0.00  0.00    +0.000 A 
ATOM     40  C   LIG    1        0.443   1.023  -5.667  0.00  0.00    +0.000 A 
ATOM     41  C   LIG    1        1.761   1.448  -5.814  0.00  0.00    +0.000 A 
ATOM     42  C   LIG    1        2.172   2.639  -5.220  0.00  0.00    +0.006 A 
ENDBRANCH  36  37
BRANCH  36  43
ATOM     43  C   LIG    1        1.696   5.904  -4.781  0.00  0.00    -0.023 A 
ATOM     44  C   LIG    1        2.865   6.608  -5.092  0.00  0.00    +0.006 A 
ATOM     45  C   LIG    1        2.820   7.680  -5.979  0.00  0.00    +0.000 A 
ATOM     46  C   LIG    1        1.607   8.047  -6.558  0.00  0.00    +0.000 A 
ATOM     47  C   LIG    1        0.438   7.353  -6.257  0.00  0.00    +0.000 A 
ATOM     48  C   LIG    1        0.482   6.281  -5.370  0.00  0.00    +0.006 A 
ENDBRANCH  36  43
ENDBRANCH  33  36
ENDBRANCH  19  32
ENDBRANCH   7  13
ENDBRANCH   1   7
BRANCH   5  49
ATOM     49  S   LIG    1        4.879   0.850   1.233  0.00  0.00    +0.061 S 
ATOM     50  O   LIG    1        4.076   1.569   2.230  0.00  0.00    -0.153 OA
ATOM     51  O   LIG    1        6.117   1.445   0.716  0.00  0.00    -0.153 OA
BRANCH  49  52
ATOM     52  N   LIG    1        5.294  -0.731   1.912  0.00  0.00    -0.174 NA
ATOM     53  C   LIG    1        5.898  -1.704   0.963  0.00  0.00    +0.141 C 
ATOM     54  C   LIG    1        5.866  -3.183   1.427  0.00  0.00    +0.175 C 
ATOM     55  C   LIG    1        4.455  -3.653   1.880  0.00  0.00    +0.238 C 
ATOM     56  O   LIG    1        3.696  -4.112   1.022  0.00  0.00    -0.273 OA
ATOM     57  N   LIG    1        4.104  -3.547   3.194  0.00  0.00    -0.285 N 
ATOM     58  C   LIG    1        2.819  -4.052   3.746  0.00  0.00    +0.162 C 
ATOM     59  C   LIG    1        2.886  -3.726   5.248  0.00  0.00    +0.034 C 
ATOM     60  C   LIG    1        4.368  -3.612   5.529  0.00  0.00    +0.025 C 
ATOM     61  C   LIG    1        4.961  -2.985   4.262  0.00  0.00    +0.078 C 
ATOM     62  C   LIG    1        4.918  -1.435   4.302  0.00  0.00    +0.039 C 
ATOM     63  C   LIG    1        5.831  -0.709   3.297  0.00  0.00    +0.111 C 
BRANCH  54  64
ATOM     64  N   LIG    1        6.371  -4.070   0.375  0.00  0.00    -0.304 N 
ATOM     65  H   LIG    1        5.669  -4.628  -0.091  0.00  0.00    +0.149 HD
ATOM     66  C   LIG    1        7.657  -4.175   0.003  0.00  0.00    +0.199 C 
ATOM     67  O   LIG    1        8.577  -3.541   0.529  0.00  0.00    -0.278 OA
BRANCH  66  68
ATOM     68  C   LIG    1        7.928  -5.182  -1.143  0.00  0.00    +0.012 C 
ATOM     69  C   LIG    1        8.228  -6.587  -0.586  0.00  0.00    -0.004 C 
BRANCH  68  70
ATOM     70  N   LIG    1        9.107  -4.684  -1.948  0.00  0.00    +0.385 N 
ATOM     71  H   LIG    1        9.392  -5.451  -2.539  0.00  0.00    -0.085 HD
ATOM     72  H   LIG    1        9.858  -4.495  -1.299  0.00  0.00    -0.085 HD
ATOM     73  C   LIG    1        8.848  -3.459  -2.844  0.00  0.00    -0.099 C 
ENDBRANCH  68  70
ENDBRANCH  66  68
ENDBRANCH  54  64
BRANCH  58  74
ATOM     74  C   LIG    1        1.529  -3.451   3.141  0.00  0.00    +0.234 C 
ATOM     75  N   LIG    1        0.488  -4.301   3.062  0.00  0.00    -0.303 N 
ATOM     76  H   LIG    1        0.681  -5.277   3.232  0.00  0.00    +0.150 HD
ATOM     77  O   LIG    1        1.461  -2.252   2.862  0.00  0.00    -0.274 OA
BRANCH  75  78
ATOM     78  C   LIG    1       -0.875  -4.016   2.594  0.00  0.00    +0.134 C 
BRANCH  78  79
ATOM     79  C   LIG    1       -1.731  -5.282   2.649  0.00  0.00    -0.023 A 
ATOM     80  C   LIG    1       -2.226  -5.844   1.467  0.00  0.00    +0.006 A 
ATOM     81  C   LIG    1       -3.007  -6.996   1.514  0.00  0.00    +0.000 A 
ATOM     82  C   LIG    1       -3.292  -7.588   2.742  0.00  0.00    +0.000 A 
ATOM     83  C   LIG    1       -2.805  -7.037   3.925  0.00  0.00    +0.000 A 
ATOM     84  C   LIG    1       -2.025  -5.885   3.879  0.00  0.00    +0.006 A 
ENDBRANCH  78  79
BRANCH  78  85
ATOM     85  C   LIG    1       -1.589  -2.829   3.265  0.00  0.00    -0.023 A 
ATOM     86  C   LIG    1       -1.372  -2.515   4.613  0.00  0.00    +0.006 A 
ATOM     87  C   LIG    1       -2.014  -1.423   5.190  0.00  0.00    +0.000 A 
ATOM     88  C   LIG    1       -2.874  -0.643   4.422  0.00  0.00    +0.000 A 
ATOM     89  C   LIG    1       -3.094  -0.943   3.080  0.00  0.00    +0.000 A 
ATOM     90  C   LIG    1       -2.443  -2.027   2.499  0.00  0.00    +0.006 A 
ENDBRANCH  78  85
ENDBRANCH  75  78
ENDBRANCH  58  74
ENDBRANCH  49  52
ENDBRANCH   5  49
TORSDOF 18
