REMARK  Name = DB16223
REMARK                            x       y       z     vdW  Elec       q    Type
REMARK                         _______ _______ _______ _____ _____    ______ ____
ROOT
ATOM      1  C   LIG    1       -3.458   3.996   2.949  0.00  0.00    +0.124 C 
ATOM      2  C   LIG    1       -2.679   2.818   2.627  0.00  0.00    +0.087 C 
ATOM      3  N   LIG    1       -1.750   2.735   1.573  0.00  0.00    -0.263 NA
ATOM      4  C   LIG    1       -1.068   1.591   1.315  0.00  0.00    +0.176 C 
ATOM      5  C   LIG    1       -1.226   0.450   2.064  0.00  0.00    +0.065 C 
ATOM      6  C   LIG    1       -2.084   0.459   3.153  0.00  0.00    +0.118 C 
ATOM      7  C   LIG    1       -0.281  -0.583   1.538  0.00  0.00    +0.047 C 
ATOM      8  C   LIG    1        0.162   0.048   0.207  0.00  0.00    +0.124 C 
ATOM      9  O   LIG    1       -0.116   1.445   0.333  0.00  0.00    -0.350 OA
ATOM     10  C   LIG    1       -1.473   3.898   0.688  0.00  0.00    +0.108 C 
ATOM     11  C   LIG    1       -2.842   1.633   3.433  0.00  0.00    +0.040 C 
ATOM     12  C   LIG    1       -3.763   1.649   4.509  0.00  0.00    +0.008 C 
ATOM     13  C   LIG    1       -4.502   2.785   4.792  0.00  0.00    +0.003 C 
ATOM     14  C   LIG    1       -4.352   3.931   4.030  0.00  0.00    +0.036 C 
ENDROOT
BRANCH   8  15
ATOM     15  C   LIG    1        1.635  -0.196  -0.207  0.00  0.00    +0.012 C 
ATOM     16  C   LIG    1        1.944  -1.696  -0.382  0.00  0.00    +0.010 C 
ATOM     17  C   LIG    1        2.010   0.582  -1.483  0.00  0.00    +0.010 C 
ENDBRANCH   8  15
BRANCH   1  19
ATOM     18  C   LIG    1       -4.014   6.343   2.565  0.00  0.00    +0.195 C 
ATOM     19  O   LIG    1       -3.324   5.152   2.198  0.00  0.00    -0.371 OA
ENDBRANCH   1  19
BRANCH   6  20
ATOM     20  O   LIG    1       -2.198  -0.685   3.904  0.00  0.00    -0.372 OA
ATOM     21  C   LIG    1       -1.274  -0.767   4.982  0.00  0.00    +0.194 C 
ENDBRANCH   6  20
TORSDOF 3
