REMARK  Name = DB16123
REMARK                            x       y       z     vdW  Elec       q    Type
REMARK                         _______ _______ _______ _____ _____    ______ ____
ROOT
ATOM      1  C   LIG    1        3.483  -0.449  -1.126  0.00  0.00    +0.121 A 
ATOM      2  C   LIG    1        4.385   0.143  -0.232  0.00  0.00    +0.046 A 
ATOM      3  C   LIG    1        5.755   0.089  -0.471  0.00  0.00    +0.012 A 
ATOM      4  C   LIG    1        6.268  -0.553  -1.610  0.00  0.00    -0.019 A 
ATOM      5  C   LIG    1        7.740  -0.660  -1.871  0.00  0.00    -0.046 C 
ATOM      6  C   LIG    1        8.217  -1.582  -2.754  0.00  0.00    -0.082 C 
ATOM      7  C   LIG    1        7.242  -2.526  -3.468  0.00  0.00    +0.034 C 
ATOM      8  C   LIG    1        5.914  -1.801  -3.775  0.00  0.00    +0.040 C 
ATOM      9  C   LIG    1        8.642   0.232  -1.012  0.00  0.00    +0.044 C 
ATOM     10  C   LIG    1        5.363  -1.138  -2.517  0.00  0.00    -0.036 A 
ATOM     11  C   LIG    1        3.990  -1.085  -2.257  0.00  0.00    +0.050 A 
ENDROOT
BRANCH   1  12
ATOM     12  O   LIG    1        2.110  -0.445  -0.973  0.00  0.00    -0.487 OA
BRANCH  12  13
ATOM     13  C   LIG    1        1.536   0.199   0.161  0.00  0.00    +0.268 C 
BRANCH  13  17
ATOM     14  C   LIG    1       -2.774  -0.140   0.020  0.00  0.00    -0.044 A 
ATOM     15  C   LIG    1       -1.992  -1.280   0.223  0.00  0.00    +0.049 A 
ATOM     16  C   LIG    1       -0.589  -1.197   0.270  0.00  0.00    +0.127 A 
ATOM     17  C   LIG    1        0.020   0.059   0.107  0.00  0.00    +0.031 A 
ATOM     18  C   LIG    1       -0.765   1.198  -0.093  0.00  0.00    +0.011 A 
ATOM     19  C   LIG    1       -2.154   1.100  -0.138  0.00  0.00    +0.004 A 
BRANCH  16  20
ATOM     20  O   LIG    1        0.238  -2.289   0.471  0.00  0.00    -0.495 OA
ATOM     21  C   LIG    1       -0.334  -3.583   0.624  0.00  0.00    +0.277 C 
ENDBRANCH  16  20
BRANCH  14  22
ATOM     22  C   LIG    1       -4.291  -0.246  -0.023  0.00  0.00    +0.035 C 
BRANCH  22  24
ATOM     23  C   LIG    1       -6.471  -0.138   1.317  0.00  0.00    +0.004 C 
ATOM     24  C   LIG    1       -4.941  -0.035   1.357  0.00  0.00    +0.001 C 
ENDBRANCH  22  24
ENDBRANCH  14  22
ENDBRANCH  13  17
ENDBRANCH  12  13
ENDBRANCH   1  12
BRANCH   6  25
ATOM     25  C   LIG    1        9.691  -1.813  -3.086  0.00  0.00    -0.047 C 
BRANCH  25  26
ATOM     26  N   LIG    1       10.246  -3.105  -2.459  0.00  0.00    +0.383 N 
ATOM     27  H   LIG    1        9.714  -3.894  -2.797  0.00  0.00    -0.081 HD
ATOM     28  C   LIG    1       10.393  -3.160  -0.934  0.00  0.00    -0.066 C 
ATOM     29  C   LIG    1       11.788  -3.796  -1.101  0.00  0.00    +0.065 C 
ATOM     30  C   LIG    1       11.749  -3.372  -2.584  0.00  0.00    -0.066 C 
BRANCH  29  31
ATOM     31  C   LIG    1       12.930  -3.213  -0.239  0.00  0.00    +0.304 C 
ATOM     32  O   LIG    1       14.069  -3.136  -0.754  0.00  0.00    -0.251 OA
BRANCH  31  33
ATOM     33  O   LIG    1       12.666  -2.891   0.942  0.00  0.00    -0.481 OA
ATOM     34  H   LIG    1       13.336  -2.535   1.492  0.00  0.00    +0.295 HD
ENDBRANCH  31  33
ENDBRANCH  29  31
ENDBRANCH  25  26
ENDBRANCH   6  25
TORSDOF 10
