REMARK  Name = DB16239
REMARK                            x       y       z     vdW  Elec       q    Type
REMARK                         _______ _______ _______ _____ _____    ______ ____
ROOT
ATOM      1  C   LIG    1        1.652   0.011  -0.450  0.00  0.00    +0.182 C 
ATOM      2  C   LIG    1        2.103  -1.443  -0.321  0.00  0.00    +0.163 A 
ATOM      3  N   LIG    1        1.380  -2.533  -0.413  0.00  0.00    -0.132 NA
ATOM      4  N   LIG    1        2.247  -3.613  -0.311  0.00  0.00    -0.134 NA
ATOM      5  C   LIG    1        3.456  -3.130  -0.171  0.00  0.00    +0.135 A 
ATOM      6  C   LIG    1        4.696  -3.998  -0.086  0.00  0.00    +0.088 C 
ATOM      7  N   LIG    1        3.438  -1.746  -0.150  0.00  0.00    -0.281 N 
ATOM      8  C   LIG    1        4.492  -0.804  -0.025  0.00  0.00    +0.059 A 
ATOM      9  C   LIG    1        5.500  -1.049   0.915  0.00  0.00    +0.030 A 
ATOM     10  C   LIG    1        6.541  -0.146   1.097  0.00  0.00    +0.048 A 
ATOM     11  C   LIG    1        6.591   1.036   0.349  0.00  0.00    +0.121 A 
ATOM     12  C   LIG    1        5.577   1.285  -0.575  0.00  0.00    +0.057 A 
ATOM     13  C   LIG    1        4.514   0.390  -0.793  0.00  0.00    +0.028 A 
ATOM     14  C   LIG    1        3.473   0.756  -1.809  0.00  0.00    +0.076 C 
ATOM     15  N   LIG    1        2.203   0.593  -1.672  0.00  0.00    -0.271 NA
ENDROOT
BRANCH  14  16
ATOM     16  C   LIG    1        3.958   1.347  -3.079  0.00  0.00    +0.001 A 
ATOM     17  C   LIG    1        3.284   2.432  -3.660  0.00  0.00    +0.011 A 
ATOM     18  C   LIG    1        3.737   2.982  -4.856  0.00  0.00    +0.020 A 
ATOM     19  C   LIG    1        4.864   2.450  -5.480  0.00  0.00    +0.041 A 
ATOM     20 CL   LIG    1        5.425   3.132  -6.963  0.00  0.00    -0.084 Cl
ATOM     21  C   LIG    1        5.540   1.370  -4.917  0.00  0.00    +0.020 A 
ATOM     22  C   LIG    1        5.088   0.818  -3.721  0.00  0.00    +0.011 A 
ENDBRANCH  14  16
BRANCH  11  23
ATOM     23  O   LIG    1        7.581   1.993   0.462  0.00  0.00    -0.495 OA
ATOM     24  C   LIG    1        8.640   1.789   1.390  0.00  0.00    +0.277 C 
ENDBRANCH  11  23
BRANCH   1  25
ATOM     25  C   LIG    1        0.104   0.167  -0.454  0.00  0.00    +0.130 C 
BRANCH  25  28
ATOM     26  N   LIG    1       -1.459   1.911  -1.183  0.00  0.00    -0.315 N 
ATOM     27  H   LIG    1       -1.845   1.181  -1.765  0.00  0.00    +0.149 HD
ATOM     28  C   LIG    1       -0.405   1.619  -0.401  0.00  0.00    +0.215 C 
ATOM     29  O   LIG    1        0.139   2.441   0.339  0.00  0.00    -0.276 OA
BRANCH  26  31
ATOM     30  C   LIG    1       -3.027   3.528  -0.086  0.00  0.00    +0.024 C 
ATOM     31  C   LIG    1       -2.103   3.220  -1.275  0.00  0.00    +0.101 C 
ENDBRANCH  26  31
ENDBRANCH  25  28
ENDBRANCH   1  25
TORSDOF 5
