REMARK  Name = DB16135
REMARK                            x       y       z     vdW  Elec       q    Type
REMARK                         _______ _______ _______ _____ _____    ______ ____
ROOT
ATOM      1  C   LIG    1        1.585   0.183  -0.274  0.00  0.00    +0.146 A 
ATOM      2  C   LIG    1        2.255   1.277  -0.794  0.00  0.00    +0.243 A 
ATOM      3  N   LIG    1        3.673   1.340  -0.704  0.00  0.00    -0.147 N 
ATOM      4  C   LIG    1        4.482   0.261  -0.375  0.00  0.00    +0.095 A 
ATOM      5  C   LIG    1        5.873   0.284  -0.550  0.00  0.00    +0.030 A 
ATOM      6  C   LIG    1        6.650  -0.805  -0.163  0.00  0.00    +0.002 A 
ATOM      7  C   LIG    1        6.042  -1.922   0.402  0.00  0.00    +0.001 A 
ATOM      8  C   LIG    1        4.659  -1.955   0.570  0.00  0.00    +0.014 A 
ATOM      9  C   LIG    1        3.853  -0.874   0.174  0.00  0.00    +0.049 A 
ATOM     10  C   LIG    1        2.354  -0.951   0.350  0.00  0.00    +0.205 A 
ATOM     11  O   LIG    1        1.849  -1.912   0.940  0.00  0.00    -0.286 OA
ENDROOT
BRANCH   1  14
ATOM     12  N   LIG    1       -0.573   1.127   0.111  0.00  0.00    -0.301 N 
ATOM     13  H   LIG    1       -0.052   1.955   0.359  0.00  0.00    +0.150 HD
ATOM     14  C   LIG    1        0.120   0.043  -0.294  0.00  0.00    +0.253 C 
ATOM     15  O   LIG    1       -0.439  -1.016  -0.596  0.00  0.00    -0.270 OA
BRANCH  12  16
ATOM     16  C   LIG    1       -2.037   1.219   0.248  0.00  0.00    +0.225 C 
BRANCH  16  17
ATOM     17  C   LIG    1       -2.816   1.490  -1.068  0.00  0.00    +0.322 C 
ATOM     18  O   LIG    1       -4.064   1.438  -0.980  0.00  0.00    -0.249 OA
BRANCH  17  19
ATOM     19  O   LIG    1       -2.204   1.764  -2.128  0.00  0.00    -0.480 OA
ATOM     20  H   LIG    1       -2.411   2.547  -2.599  0.00  0.00    +0.295 HD
ENDBRANCH  17  19
ENDBRANCH  16  17
ENDBRANCH  12  16
ENDBRANCH   1  14
BRANCH   2  21
ATOM     21  O   LIG    1        1.738   2.268  -1.456  0.00  0.00    -0.491 OA
ATOM     22  H   LIG    1        0.810   2.320  -1.573  0.00  0.00    +0.294 HD
ENDBRANCH   2  21
BRANCH   3  23
ATOM     23  O   LIG    1        4.254   2.640  -0.351  0.00  0.00    -0.408 OA
BRANCH  23  24
ATOM     24  C   LIG    1        4.110   2.906   1.046  0.00  0.00    +0.264 C 
BRANCH  24  25
ATOM     25  C   LIG    1        4.726   4.281   1.347  0.00  0.00    +0.029 C 
ATOM     26  C   LIG    1        3.985   5.538   0.968  0.00  0.00    +0.007 C 
ATOM     27  C   LIG    1        4.136   5.148   2.429  0.00  0.00    +0.007 C 
ENDBRANCH  24  25
ENDBRANCH  23  24
ENDBRANCH   3  23
TORSDOF 8
