REMARK  Name = DB16242
REMARK                            x       y       z     vdW  Elec       q    Type
REMARK                         _______ _______ _______ _____ _____    ______ ____
ROOT
ATOM      1  C   LIG    1        0.778   0.190   0.417  0.00  0.00    +0.128 C 
ENDROOT
BRANCH   1   2
ATOM      2  N   LIG    1        1.212   0.902   1.632  0.00  0.00    -0.284 N 
ATOM      3  C   LIG    1        0.914   0.454   2.877  0.00  0.00    +0.250 C 
ATOM      4  O   LIG    1        0.340  -0.599   3.155  0.00  0.00    -0.270 OA
ATOM      5  C   LIG    1        1.390   1.535   3.813  0.00  0.00    +0.063 A 
ATOM      6  C   LIG    1        1.363   1.625   5.224  0.00  0.00    +0.046 A 
ATOM      7  C   LIG    1        1.700   2.849   5.817  0.00  0.00    +0.024 A 
ATOM      8  C   LIG    1        2.128   3.928   5.043  0.00  0.00    +0.002 A 
ATOM      9  C   LIG    1        2.205   3.805   3.657  0.00  0.00    +0.006 A 
ATOM     10  C   LIG    1        1.824   2.610   3.050  0.00  0.00    -0.016 A 
ATOM     11  C   LIG    1        1.776   2.246   1.603  0.00  0.00    +0.144 C 
BRANCH   6  12
ATOM     12  N   LIG    1        0.999   0.611   6.127  0.00  0.00    -0.285 N 
ATOM     13  H   LIG    1        0.624   0.932   7.007  0.00  0.00    +0.155 HD
ATOM     14  C   LIG    1        1.404  -0.675   6.105  0.00  0.00    +0.220 C 
ATOM     15  O   LIG    1        2.218  -1.130   5.297  0.00  0.00    -0.275 OA
BRANCH  14  16
ATOM     16  C   LIG    1        0.823  -1.558   7.226  0.00  0.00    +0.075 C 
ATOM     17  C   LIG    1        0.615  -3.019   6.885  0.00  0.00    +0.013 C 
ATOM     18  C   LIG    1        1.751  -2.610   7.800  0.00  0.00    +0.013 C 
ENDBRANCH  14  16
ENDBRANCH   6  12
ENDBRANCH   1   2
BRANCH   1  21
ATOM     19  C   LIG    1       -2.251   2.069  -1.053  0.00  0.00    +0.162 A 
ATOM     20  C   LIG    1       -0.936   1.742  -0.680  0.00  0.00    +0.055 A 
ATOM     21  C   LIG    1       -0.654   0.568   0.025  0.00  0.00    -0.022 A 
ATOM     22  C   LIG    1       -1.702  -0.295   0.348  0.00  0.00    +0.009 A 
ATOM     23  C   LIG    1       -3.009   0.016  -0.013  0.00  0.00    +0.050 A 
ATOM     24  C   LIG    1       -3.298   1.198  -0.714  0.00  0.00    +0.162 A 
BRANCH  24  25
ATOM     25  O   LIG    1       -4.575   1.567  -1.101  0.00  0.00    -0.491 OA
ATOM     26  C   LIG    1       -5.675   0.722  -0.783  0.00  0.00    +0.277 C 
ENDBRANCH  24  25
BRANCH  19  27
ATOM     27  O   LIG    1       -2.589   3.218  -1.746  0.00  0.00    -0.489 OA
BRANCH  27  29
ATOM     28  C   LIG    1       -2.217   5.305  -2.877  0.00  0.00    +0.048 C 
ATOM     29  C   LIG    1       -1.569   4.135  -2.132  0.00  0.00    +0.226 C 
ENDBRANCH  27  29
ENDBRANCH  19  27
ENDBRANCH   1  21
BRANCH   1  30
ATOM     30  C   LIG    1        1.802   0.329  -0.738  0.00  0.00    +0.192 C 
BRANCH  30  31
ATOM     31  S   LIG    1        1.405  -0.867  -2.152  0.00  0.00    -0.032 S 
ATOM     32  O   LIG    1        0.234  -0.361  -2.876  0.00  0.00    -0.175 OA
ATOM     33  O   LIG    1        1.394  -2.229  -1.611  0.00  0.00    -0.175 OA
ATOM     34  C   LIG    1        2.896  -0.709  -3.293  0.00  0.00    +0.194 C 
ENDBRANCH  30  31
ENDBRANCH   1  30
TORSDOF 9
