REMARK  Name = DB16857
REMARK                            x       y       z     vdW  Elec       q    Type
REMARK                         _______ _______ _______ _____ _____    ______ ____
ROOT
ATOM      1  C   LIG    1       -0.021   0.049  -0.007  0.00  0.00    +0.000 C 
ENDROOT
BRANCH   1   2
ATOM      2  C   LIG    1       -0.560   1.491   0.030  0.00  0.00    +0.001 C 
BRANCH   2   3
ATOM      3  C   LIG    1       -2.102   1.556   0.060  0.00  0.00    +0.011 C 
BRANCH   3   4
ATOM      4  C   LIG    1       -2.687   2.995   0.050  0.00  0.00    +0.120 C 
BRANCH   4   5
ATOM      5  C   LIG    1       -2.379   3.843   1.307  0.00  0.00    +0.305 C 
ATOM      6  O   LIG    1       -2.297   5.081   1.142  0.00  0.00    -0.251 OA
BRANCH   5   7
ATOM      7  O   LIG    1       -2.270   3.275   2.419  0.00  0.00    -0.481 OA
ATOM      8  H   LIG    1       -2.084   3.779   3.186  0.00  0.00    +0.295 HD
ENDBRANCH   5   7
ENDBRANCH   4   5
ENDBRANCH   3   4
ENDBRANCH   2   3
ENDBRANCH   1   2
BRANCH   1   9
ATOM      9  C   LIG    1        1.516  -0.015  -0.026  0.00  0.00    +0.000 C 
BRANCH   9  10
ATOM     10  C   LIG    1        2.059  -1.455  -0.041  0.00  0.00    -0.000 C 
BRANCH  10  11
ATOM     11  C   LIG    1        3.597  -1.515  -0.046  0.00  0.00    -0.000 C 
BRANCH  11  12
ATOM     12  C   LIG    1        4.143  -2.954  -0.033  0.00  0.00    -0.000 C 
BRANCH  12  13
ATOM     13  C   LIG    1        5.681  -3.009  -0.014  0.00  0.00    -0.003 C 
ATOM     14  C   LIG    1        6.228  -4.443   0.009  0.00  0.00    +0.004 C 
ENDBRANCH  12  13
ENDBRANCH  11  12
ENDBRANCH  10  11
ENDBRANCH   9  10
ENDBRANCH   1   9
TORSDOF 10
