REMARK  Name = DB16834
REMARK                            x       y       z     vdW  Elec       q    Type
REMARK                         _______ _______ _______ _____ _____    ______ ____
ROOT
ATOM      1  C   LIG    1        1.458   0.096  -0.064  0.00  0.00    +0.221 A 
ATOM      2  N   LIG    1        2.180   1.040  -0.733  0.00  0.00    -0.195 NA
ATOM      3  C   LIG    1        3.502   0.772  -0.877  0.00  0.00    +0.167 A 
ATOM      4  N   LIG    1        4.481   1.522  -1.496  0.00  0.00    -0.273 N 
ATOM      5  C   LIG    1        5.686   0.887  -1.415  0.00  0.00    +0.331 A 
ATOM      6  O   LIG    1        6.770   1.273  -1.857  0.00  0.00    -0.246 OA
ATOM      7  N   LIG    1        5.432  -0.269  -0.739  0.00  0.00    -0.292 N 
ATOM      8  C   LIG    1        6.468  -1.247  -0.421  0.00  0.00    +0.154 C 
ATOM      9  C   LIG    1        4.102  -0.352  -0.399  0.00  0.00    +0.107 A 
ATOM     10  C   LIG    1        3.312  -1.283   0.277  0.00  0.00    +0.144 A 
ATOM     11  N   LIG    1        1.976  -1.061   0.449  0.00  0.00    -0.220 NA
ENDROOT
BRANCH   4  12
ATOM     12  C   LIG    1        4.304   2.828  -2.152  0.00  0.00    +0.098 C 
ATOM     13  C   LIG    1        3.407   2.798  -3.414  0.00  0.00    +0.053 C 
ATOM     14  C   LIG    1        3.150   4.202  -3.993  0.00  0.00    +0.162 C 
ATOM     15  O   LIG    1        2.670   5.074  -2.976  0.00  0.00    -0.380 OA
ATOM     16  C   LIG    1        3.620   5.296  -1.939  0.00  0.00    +0.162 C 
ATOM     17  C   LIG    1        3.913   3.980  -1.195  0.00  0.00    +0.053 C 
ENDBRANCH   4  12
BRANCH   1  18
ATOM     18  N   LIG    1        0.077   0.272   0.132  0.00  0.00    -0.282 N 
ATOM     19  H   LIG    1       -0.344  -0.506   0.619  0.00  0.00    +0.155 HD
BRANCH  18  24
ATOM     20  C   LIG    1       -2.790   3.234  -0.826  0.00  0.00    +0.156 A 
ATOM     21  C   LIG    1       -3.186   2.042  -0.200  0.00  0.00    +0.053 A 
ATOM     22  C   LIG    1       -2.217   1.075   0.109  0.00  0.00    -0.024 A 
ATOM     23  C   LIG    1       -2.686  -0.207   0.791  0.00  0.00    +0.046 C 
ATOM     24  C   LIG    1       -0.854   1.280  -0.201  0.00  0.00    +0.055 A 
ATOM     25  C   LIG    1       -0.478   2.481  -0.822  0.00  0.00    +0.138 A 
ATOM     26  N   LIG    1       -1.439   3.407  -1.113  0.00  0.00    -0.219 N 
ATOM     27  N   LIG    1       -1.260   4.605  -1.705  0.00  0.00    -0.154 NA
ATOM     28  C   LIG    1       -2.492   5.077  -1.740  0.00  0.00    +0.246 A 
ATOM     29  N   LIG    1       -3.464   4.333  -1.243  0.00  0.00    -0.215 NA
ENDBRANCH  18  24
ENDBRANCH   1  18
TORSDOF 3
