REMARK  Name = DB16173
REMARK                            x       y       z     vdW  Elec       q    Type
REMARK                         _______ _______ _______ _____ _____    ______ ____
ROOT
ATOM      1  C   LIG    1       -3.760  -1.701  -1.725  0.00  0.00    +0.035 C 
ATOM      2  C   LIG    1       -3.097  -1.957  -0.343  0.00  0.00    +0.066 C 
ATOM      3  C   LIG    1       -2.039  -0.847  -0.195  0.00  0.00    +0.131 C 
ATOM      4  N   LIG    1       -2.230   0.500   0.014  0.00  0.00    -0.280 NA
ATOM      5  H   LIG    1       -3.133   0.946   0.089  0.00  0.00    +0.125 HD
ATOM      6  C   LIG    1       -1.018   1.168   0.076  0.00  0.00    +0.111 C 
ATOM      7  C   LIG    1       -0.029   0.182  -0.089  0.00  0.00    +0.150 C 
ATOM      8  N   LIG    1       -0.676  -1.045  -0.239  0.00  0.00    -0.253 NA
ATOM      9  C   LIG    1       -0.133  -2.368  -0.502  0.00  0.00    +0.107 C 
ATOM     10  C   LIG    1       -1.016  -3.349   0.305  0.00  0.00    +0.124 C 
ATOM     11  N   LIG    1       -2.395  -3.301  -0.265  0.00  0.00    -0.293 N 
ATOM     12  C   LIG    1       -3.061  -4.475  -0.519  0.00  0.00    +0.199 C 
ATOM     13  O   LIG    1       -4.268  -4.489  -0.783  0.00  0.00    -0.278 OA
ATOM     14  C   LIG    1       -4.108  -1.792   0.822  0.00  0.00    +0.035 C 
ENDROOT
BRANCH   6  15
ATOM     15  C   LIG    1       -0.937   2.648   0.255  0.00  0.00    -0.021 A 
ATOM     16  C   LIG    1        0.063   3.379  -0.395  0.00  0.00    +0.008 A 
ATOM     17  C   LIG    1        0.153   4.756  -0.215  0.00  0.00    +0.038 A 
ATOM     18  C   LIG    1       -0.760   5.406   0.612  0.00  0.00    +0.123 A 
ATOM     19  F   LIG    1       -0.671   6.744   0.789  0.00  0.00    -0.205 F 
ATOM     20  C   LIG    1       -1.765   4.689   1.258  0.00  0.00    +0.038 A 
ATOM     21  C   LIG    1       -1.854   3.311   1.079  0.00  0.00    +0.008 A 
ENDBRANCH   6  15
BRANCH   7  22
ATOM     22  N   LIG    1        1.346   0.249  -0.125  0.00  0.00    -0.321 N 
ATOM     23  H   LIG    1        1.860  -0.320  -0.781  0.00  0.00    +0.148 HD
BRANCH  22  24
ATOM     24  C   LIG    1        2.182   0.955   0.758  0.00  0.00    +0.029 A 
ATOM     25  C   LIG    1        1.719   1.503   1.962  0.00  0.00    +0.026 A 
ATOM     26  C   LIG    1        2.593   2.194   2.797  0.00  0.00    +0.040 A 
ATOM     27  C   LIG    1        3.931   2.330   2.436  0.00  0.00    +0.124 A 
ATOM     28  F   LIG    1        4.779   3.002   3.247  0.00  0.00    -0.205 F 
ATOM     29  C   LIG    1        4.403   1.778   1.248  0.00  0.00    +0.040 A 
ATOM     30  C   LIG    1        3.529   1.087   0.412  0.00  0.00    +0.026 A 
ENDBRANCH  22  24
ENDBRANCH   7  22
BRANCH  12  31
ATOM     31  C   LIG    1       -2.276  -5.820  -0.463  0.00  0.00    +0.011 C 
BRANCH  31  32
ATOM     32  N   LIG    1       -3.038  -6.946  -1.081  0.00  0.00    +0.384 N 
ATOM     33  H   LIG    1       -3.920  -7.089  -0.610  0.00  0.00    -0.089 HD
ATOM     34  H   LIG    1       -3.226  -6.765  -2.057  0.00  0.00    -0.089 HD
ATOM     35  H   LIG    1       -2.517  -7.809  -1.024  0.00  0.00    -0.089 HD
ENDBRANCH  31  32
ENDBRANCH  12  31
TORSDOF 5
