REMARK  Name = DB16408
REMARK                            x       y       z     vdW  Elec       q    Type
REMARK                         _______ _______ _______ _____ _____    ______ ____
ROOT
ATOM      1  C   LIG    1       -3.307  -5.050  -0.924  0.00  0.00    +0.221 A 
ATOM      2  C   LIG    1       -3.128  -4.305   0.246  0.00  0.00    +0.113 A 
ATOM      3  C   LIG    1       -2.740  -2.976   0.102  0.00  0.00    +0.138 A 
ATOM      4  O   LIG    1       -2.526  -2.114   1.138  0.00  0.00    -0.476 OA
ATOM      5  C   LIG    1       -2.193  -0.811   0.621  0.00  0.00    +0.178 C 
ATOM      6  C   LIG    1       -2.104  -0.973  -0.952  0.00  0.00    +0.169 C 
ATOM      7  C   LIG    1       -0.635  -0.587  -1.341  0.00  0.00    +0.157 C 
ATOM      8  C   LIG    1       -0.042   0.153  -0.120  0.00  0.00    +0.016 C 
ATOM      9  C   LIG    1       -0.731  -0.525   1.080  0.00  0.00    +0.075 C 
ATOM     10  C   LIG    1       -2.529  -2.407  -1.134  0.00  0.00    +0.094 A 
ATOM     11  C   LIG    1       -2.722  -3.208  -2.263  0.00  0.00    +0.227 A 
ATOM     12  N   LIG    1       -3.108  -4.515  -2.167  0.00  0.00    -0.177 NA
ENDROOT
BRANCH   5  13
ATOM     13  C   LIG    1       -3.220   0.239   1.132  0.00  0.00    -0.000 A 
ATOM     14  C   LIG    1       -4.228  -0.131   2.034  0.00  0.00    +0.009 A 
ATOM     15  C   LIG    1       -5.138   0.808   2.511  0.00  0.00    +0.019 A 
ATOM     16  C   LIG    1       -5.050   2.135   2.092  0.00  0.00    +0.052 A 
ATOM     17  C   LIG    1       -4.053   2.522   1.198  0.00  0.00    +0.019 A 
ATOM     18  C   LIG    1       -3.145   1.579   0.724  0.00  0.00    +0.009 A 
BRANCH  16  19
ATOM     19  C   LIG    1       -6.001   3.118   2.589  0.00  0.00    +0.099 C 
ATOM     20  N   LIG    1       -6.758   3.900   2.983  0.00  0.00    -0.191 NA
ENDBRANCH  16  19
ENDBRANCH   5  13
BRANCH   9  21
ATOM     21  C   LIG    1       -0.548   0.100   2.472  0.00  0.00    -0.040 A 
ATOM     22  C   LIG    1       -0.578  -0.734   3.595  0.00  0.00    +0.004 A 
ATOM     23  C   LIG    1       -0.427  -0.200   4.872  0.00  0.00    +0.000 A 
ATOM     24  C   LIG    1       -0.249   1.172   5.028  0.00  0.00    +0.000 A 
ATOM     25  C   LIG    1       -0.224   2.014   3.919  0.00  0.00    +0.000 A 
ATOM     26  C   LIG    1       -0.374   1.480   2.643  0.00  0.00    +0.004 A 
ENDBRANCH   9  21
BRANCH   1  28
ATOM     27  C   LIG    1       -3.902  -7.152  -1.983  0.00  0.00    +0.279 C 
ATOM     28  O   LIG    1       -3.699  -6.372  -0.806  0.00  0.00    -0.480 OA
ENDBRANCH   1  28
BRANCH   6  29
ATOM     29  O   LIG    1       -2.999  -0.145  -1.682  0.00  0.00    -0.377 OA
ATOM     30  H   LIG    1       -3.874  -0.227  -1.295  0.00  0.00    +0.211 HD
ENDBRANCH   6  29
BRANCH   7  31
ATOM     31  O   LIG    1        0.145  -1.716  -1.717  0.00  0.00    -0.388 OA
ATOM     32  H   LIG    1        0.099  -2.368  -1.014  0.00  0.00    +0.210 HD
ENDBRANCH   7  31
BRANCH  11  33
ATOM     33  O   LIG    1       -2.500  -2.639  -3.504  0.00  0.00    -0.479 OA
ATOM     34  C   LIG    1       -2.668  -3.434  -4.675  0.00  0.00    +0.279 C 
ENDBRANCH  11  33
BRANCH   8  35
ATOM     35  C   LIG    1        1.508   0.180   0.009  0.00  0.00    -0.073 C 
BRANCH  35  36
ATOM     36  N   LIG    1        2.199   0.662  -1.290  0.00  0.00    +0.376 N 
ATOM     37  H   LIG    1        1.856   0.076  -2.039  0.00  0.00    -0.083 HD
ATOM     38  C   LIG    1        3.724   0.449  -1.222  0.00  0.00    -0.097 C 
ATOM     39  C   LIG    1        1.867   2.123  -1.658  0.00  0.00    -0.097 C 
ENDBRANCH  35  36
ENDBRANCH   8  35
TORSDOF 9
