REMARK  Name = DB16333
REMARK                            x       y       z     vdW  Elec       q    Type
REMARK                         _______ _______ _______ _____ _____    ______ ____
ROOT
ATOM      1  C   LIG    1       -0.977   5.660  -2.196  0.00  0.00    +0.048 C 
ATOM      2  C   LIG    1       -0.722   4.151  -2.269  0.00  0.00    -0.002 A 
ATOM      3  C   LIG    1       -0.761   3.370  -1.102  0.00  0.00    -0.002 A 
ATOM      4  C   LIG    1       -1.004   4.022   0.263  0.00  0.00    +0.048 C 
ATOM      5  C   LIG    1       -0.556   1.985  -1.188  0.00  0.00    +0.129 A 
ATOM      6  O   LIG    1       -0.693   1.282   0.004  0.00  0.00    -0.476 OA
ATOM      7  C   LIG    1       -0.166  -0.056   0.096  0.00  0.00    +0.183 C 
ATOM      8  C   LIG    1       -0.766  -0.722   1.355  0.00  0.00    +0.066 C 
ATOM      9  C   LIG    1       -0.526  -0.848  -1.187  0.00  0.00    +0.062 C 
ATOM     10  C   LIG    1       -0.024  -0.149  -2.458  0.00  0.00    +0.043 C 
ATOM     11  C   LIG    1       -0.296   1.356  -2.424  0.00  0.00    +0.001 A 
ATOM     12  C   LIG    1       -0.254   2.150  -3.584  0.00  0.00    -0.002 A 
ATOM     13  C   LIG    1        0.058   1.493  -4.933  0.00  0.00    +0.048 C 
ATOM     14  C   LIG    1       -0.472   3.535  -3.506  0.00  0.00    +0.123 A 
ENDROOT
BRANCH   7  15
ATOM     15  C   LIG    1        1.382   0.005   0.311  0.00  0.00    +0.257 C 
ATOM     16  N   LIG    1        1.948   1.214   0.499  0.00  0.00    -0.311 N 
ATOM     17  H   LIG    1        1.342   2.022   0.477  0.00  0.00    +0.149 HD
ATOM     18  O   LIG    1        2.041  -1.037   0.307  0.00  0.00    -0.271 OA
BRANCH  16  19
ATOM     19  C   LIG    1        3.374   1.488   0.675  0.00  0.00    +0.056 C 
ATOM     20  C   LIG    1        3.787   2.828   0.016  0.00  0.00    -0.060 C 
ATOM     21  N   LIG    1        5.292   3.098   0.207  0.00  0.00    +0.380 N 
ATOM     22  H   LIG    1        5.823   2.391  -0.283  0.00  0.00    -0.086 HD
ATOM     23  H   LIG    1        5.528   3.989  -0.208  0.00  0.00    -0.086 HD
ATOM     24  C   LIG    1        5.698   3.101   1.691  0.00  0.00    -0.082 C 
ATOM     25  C   LIG    1        5.326   1.748   2.322  0.00  0.00    -0.017 C 
ATOM     26  C   LIG    1        3.834   1.400   2.150  0.00  0.00    +0.018 C 
ENDBRANCH  16  19
ENDBRANCH   7  15
BRANCH  14  27
ATOM     27  O   LIG    1       -0.433   4.298  -4.650  0.00  0.00    -0.506 OA
ATOM     28  H   LIG    1       -0.270   3.778  -5.440  0.00  0.00    +0.292 HD
ENDBRANCH  14  27
TORSDOF 3
