REMARK  Name = DB16132
REMARK                            x       y       z     vdW  Elec       q    Type
REMARK                         _______ _______ _______ _____ _____    ______ ____
ROOT
ATOM      1  C   LIG    1       -2.663  -1.693  -1.062  0.00  0.00    +0.049 C 
ATOM      2  C   LIG    1       -2.172  -0.812   0.130  0.00  0.00    +0.165 C 
ATOM      3  N   LIG    1       -0.745  -1.050   0.276  0.00  0.00    -0.258 NA
ATOM      4  C   LIG    1        0.006  -0.079  -0.064  0.00  0.00    +0.104 C 
ATOM      5  S   LIG    1       -0.833   1.401  -0.643  0.00  0.00    -0.103 S 
ATOM      6  C   LIG    1       -2.423   0.683  -0.216  0.00  0.00    +0.117 C 
ENDROOT
BRANCH   4   7
ATOM      7  C   LIG    1        1.484  -0.099  -0.023  0.00  0.00    +0.048 A 
ATOM      8  C   LIG    1        2.240  -1.246  -0.354  0.00  0.00    +0.130 A 
ATOM      9  C   LIG    1        3.635  -1.211  -0.283  0.00  0.00    +0.091 A 
ATOM     10  C   LIG    1        4.293  -0.048   0.111  0.00  0.00    +0.120 A 
ATOM     11  C   LIG    1        3.559   1.088   0.438  0.00  0.00    +0.046 A 
ATOM     12  C   LIG    1        2.167   1.062   0.372  0.00  0.00    +0.018 A 
BRANCH   8  13
ATOM     13  O   LIG    1        1.660  -2.421  -0.770  0.00  0.00    -0.506 OA
ATOM     14  H   LIG    1        2.300  -3.112  -0.949  0.00  0.00    +0.292 HD
ENDBRANCH   8  13
BRANCH  10  15
ATOM     15  O   LIG    1        5.661  -0.022   0.175  0.00  0.00    -0.507 OA
ATOM     16  H   LIG    1        6.062  -0.859  -0.071  0.00  0.00    +0.292 HD
ENDBRANCH  10  15
ENDBRANCH   4   7
BRANCH   2  17
ATOM     17  C   LIG    1       -2.850  -1.209   1.498  0.00  0.00    +0.333 C 
ATOM     18  O   LIG    1       -3.503  -2.277   1.574  0.00  0.00    -0.248 OA
BRANCH  17  19
ATOM     19  O   LIG    1       -2.692  -0.454   2.489  0.00  0.00    -0.479 OA
ATOM     20  H   LIG    1       -3.087  -0.671   3.310  0.00  0.00    +0.295 HD
ENDBRANCH  17  19
ENDBRANCH   2  17
TORSDOF 5
