REMARK  Name = DB16297
REMARK                            x       y       z     vdW  Elec       q    Type
REMARK                         _______ _______ _______ _____ _____    ______ ____
ROOT
ATOM      1  C   LIG    1        1.484  -0.019   0.045  0.00  0.00    +0.102 A 
ATOM      2  S   LIG    1        2.335  -1.550   0.059  0.00  0.00    -0.068 S 
ATOM      3  C   LIG    1        3.847  -0.654   0.030  0.00  0.00    +0.043 A 
ATOM      4  C   LIG    1        5.167  -1.123   0.022  0.00  0.00    +0.062 A 
ATOM      5  C   LIG    1        6.212  -0.183  -0.004  0.00  0.00    +0.122 A 
ATOM      6  C   LIG    1        5.918   1.184  -0.020  0.00  0.00    +0.048 A 
ATOM      7  C   LIG    1        4.608   1.664  -0.011  0.00  0.00    +0.032 A 
ATOM      8  C   LIG    1        3.559   0.734   0.014  0.00  0.00    +0.079 A 
ATOM      9  N   LIG    1        2.236   1.050   0.023  0.00  0.00    -0.240 NA
ENDROOT
BRANCH   1  11
ATOM     10  C   LIG    1       -0.758   1.112   0.030  0.00  0.00    +0.003 C 
ATOM     11  C   LIG    1        0.031   0.021   0.053  0.00  0.00    +0.035 C 
BRANCH  10  13
ATOM     12  C   LIG    1       -2.994   2.132   0.004  0.00  0.00    +0.009 C 
ATOM     13  C   LIG    1       -2.207   1.039   0.035  0.00  0.00    +0.001 C 
BRANCH  12  17
ATOM     14  C   LIG    1       -7.249   2.233  -0.008  0.00  0.00    +0.118 A 
ATOM     15  N   LIG    1       -6.621   1.025  -0.005  0.00  0.00    -0.240 NA
ATOM     16  C   LIG    1       -5.264   1.000  -0.000  0.00  0.00    +0.120 A 
ATOM     17  C   LIG    1       -4.472   2.158   0.001  0.00  0.00    -0.007 A 
ATOM     18  C   LIG    1       -5.138   3.389  -0.003  0.00  0.00    +0.013 A 
ATOM     19  C   LIG    1       -6.534   3.433  -0.007  0.00  0.00    +0.044 A 
BRANCH  14  21
ATOM     20  C   LIG    1       -9.472   1.090  -0.007  0.00  0.00    +0.127 C 
ATOM     21  N   LIG    1       -8.652   2.295  -0.015  0.00  0.00    -0.332 N 
ATOM     22  H   LIG    1       -9.111   3.194  -0.008  0.00  0.00    +0.147 HD
ENDBRANCH  14  21
ENDBRANCH  12  17
ENDBRANCH  10  13
ENDBRANCH   1  11
BRANCH   5  23
ATOM     23  O   LIG    1        7.553  -0.516  -0.016  0.00  0.00    -0.489 OA
BRANCH  23  24
ATOM     24  C   LIG    1        7.937  -1.891   0.000  0.00  0.00    +0.263 C 
BRANCH  24  25
ATOM     25  C   LIG    1        9.472  -2.019  -0.042  0.00  0.00    +0.182 C 
BRANCH  25  26
ATOM     26  C   LIG    1       10.107  -1.378  -1.290  0.00  0.00    +0.248 C 
ATOM     27  F   LIG    1       11.431  -1.523  -1.356  0.00  0.00    -0.246 F 
ENDBRANCH  25  26
BRANCH  25  28
ATOM     28  O   LIG    1       10.037  -1.470   1.135  0.00  0.00    -0.386 OA
ATOM     29  H   LIG    1        9.614  -1.872   1.896  0.00  0.00    +0.210 HD
ENDBRANCH  25  28
ENDBRANCH  24  25
ENDBRANCH  23  24
ENDBRANCH   5  23
TORSDOF 9
