REMARK  Name = DB16109
REMARK                            x       y       z     vdW  Elec       q    Type
REMARK                         _______ _______ _______ _____ _____    ______ ____
ROOT
ATOM      1  C   LIG    1        2.025  -1.461  -0.011  0.00  0.00    -0.044 A 
ATOM      2  C   LIG    1        2.301  -2.120  -1.212  0.00  0.00    +0.005 A 
ATOM      3  C   LIG    1        2.772  -3.430  -1.195  0.00  0.00    +0.023 A 
ATOM      4  C   LIG    1        2.967  -4.081   0.024  0.00  0.00    +0.025 A 
ATOM      5  C   LIG    1        2.690  -3.428   1.225  0.00  0.00    +0.023 A 
ATOM      6  C   LIG    1        2.219  -2.117   1.207  0.00  0.00    +0.005 A 
ENDROOT
BRANCH   4   7
ATOM      7  N   LIG    1        3.441  -5.392   0.042  0.00  0.00    -0.358 N 
ATOM      8  H   LIG    1        3.600  -5.849   0.928  0.00  0.00    +0.142 HD
ATOM      9  H   LIG    1        3.664  -5.853  -0.829  0.00  0.00    +0.142 HD
ENDBRANCH   4   7
BRANCH   1  10
ATOM     10  C   LIG    1        1.505  -0.028  -0.029  0.00  0.00    +0.078 C 
BRANCH  10  11
ATOM     11  C   LIG    1       -0.041   0.055  -0.016  0.00  0.00    +0.230 C 
BRANCH  11  13
ATOM     12  C   LIG    1       -1.918  -0.897  -1.219  0.00  0.00    +0.195 C 
ATOM     13  O   LIG    1       -0.534  -0.559  -1.216  0.00  0.00    -0.368 OA
ENDBRANCH  11  13
BRANCH  11  14
ATOM     14  C   LIG    1       -0.496   1.540   0.086  0.00  0.00    +0.334 C 
ATOM     15  O   LIG    1       -0.620   2.016   1.238  0.00  0.00    -0.248 OA
BRANCH  14  16
ATOM     16  O   LIG    1       -0.697   2.190  -0.967  0.00  0.00    -0.479 OA
ATOM     17  H   LIG    1       -0.971   3.085  -0.920  0.00  0.00    +0.295 HD
ENDBRANCH  14  16
ENDBRANCH  11  14
ENDBRANCH  10  11
ENDBRANCH   1  10
TORSDOF 6
