REMARK  Name = DB16354
REMARK                            x       y       z     vdW  Elec       q    Type
REMARK                         _______ _______ _______ _____ _____    ______ ____
ROOT
ATOM      1  C   LIG    1        1.746  -3.078  -1.618  0.00  0.00    +0.024 A 
ATOM      2  C   LIG    1        1.696  -1.681  -1.606  0.00  0.00    +0.055 A 
ATOM      3  C   LIG    1        2.977  -0.850  -1.605  0.00  0.00    +0.136 C 
ATOM      4  N   LIG    1        2.997   0.200  -0.585  0.00  0.00    -0.309 NA
ATOM      5  H   LIG    1        3.758   0.827  -0.803  0.00  0.00    +0.122 HD
ATOM      6  C   LIG    1        3.156  -0.300   0.784  0.00  0.00    +0.040 C 
ATOM      7  C   LIG    1        4.633  -0.633   1.116  0.00  0.00    +0.017 C 
ATOM      8  C   LIG    1        4.801  -1.216   2.531  0.00  0.00    +0.001 C 
ATOM      9  C   LIG    1        4.192  -0.295   3.602  0.00  0.00    -0.001 C 
ATOM     10  C   LIG    1        2.731   0.065   3.282  0.00  0.00    -0.014 C 
ATOM     11  C   LIG    1        2.561   0.663   1.859  0.00  0.00    -0.055 C 
ATOM     12  N   LIG    1        1.050   0.808   1.565  0.00  0.00    +0.383 N 
ATOM     13  H   LIG    1        0.607  -0.075   1.776  0.00  0.00    -0.085 HD
ATOM     14  H   LIG    1        0.940   0.937   0.569  0.00  0.00    -0.085 HD
ATOM     15  C   LIG    1        0.310   1.937   2.311  0.00  0.00    -0.067 C 
ATOM     16  C   LIG    1       -1.192   1.935   1.956  0.00  0.00    +0.062 C 
ATOM     17  N   LIG    1       -1.411   2.113   0.522  0.00  0.00    -0.317 NA
ATOM     18  H   LIG    1       -1.238   3.084   0.302  0.00  0.00    +0.122 HD
ATOM     19  C   LIG    1       -2.779   1.790   0.108  0.00  0.00    +0.040 C 
ATOM     20  C   LIG    1       -3.856   2.806   0.567  0.00  0.00    +0.017 C 
ATOM     21  C   LIG    1       -5.281   2.385   0.142  0.00  0.00    +0.001 C 
ATOM     22  C   LIG    1       -5.402   2.132  -1.376  0.00  0.00    -0.001 C 
ATOM     23  C   LIG    1       -4.344   1.134  -1.884  0.00  0.00    -0.014 C 
ATOM     24  C   LIG    1       -2.929   1.543  -1.422  0.00  0.00    -0.054 C 
ATOM     25  N   LIG    1       -1.858   0.566  -1.957  0.00  0.00    +0.386 N 
ATOM     26  H   LIG    1       -0.963   0.914  -1.642  0.00  0.00    -0.085 HD
ATOM     27  H   LIG    1       -1.852   0.593  -2.966  0.00  0.00    -0.085 HD
ATOM     28  C   LIG    1       -1.945  -0.907  -1.502  0.00  0.00    -0.026 C 
ATOM     29  C   LIG    1       -0.644  -1.700  -1.577  0.00  0.00    +0.025 A 
ATOM     30  C   LIG    1       -0.668  -3.098  -1.585  0.00  0.00    +0.021 A 
ATOM     31  N   LIG    1        0.520  -0.995  -1.585  0.00  0.00    -0.257 NA
ATOM     32  C   LIG    1        0.545  -3.790  -1.610  0.00  0.00    +0.003 A 
ENDROOT
TORSDOF 0
