REMARK  Name = DB16147
REMARK                            x       y       z     vdW  Elec       q    Type
REMARK                         _______ _______ _______ _____ _____    ______ ____
ROOT
ATOM      1  N   LIG    1        3.584   0.356   0.975  0.00  0.00    -0.306 N 
ATOM      2  H   LIG    1        3.831   0.055   0.043  0.00  0.00    +0.149 HD
ATOM      3  C   LIG    1        4.575   0.811   1.766  0.00  0.00    +0.243 C 
ATOM      4  O   LIG    1        4.372   1.325   2.869  0.00  0.00    -0.273 OA
ENDROOT
BRANCH   3   5
ATOM      5  C   LIG    1        6.007   0.678   1.216  0.00  0.00    +0.222 C 
ATOM      6  N   LIG    1        7.068   1.288   2.064  0.00  0.00    -0.154 NA
ATOM      7  C   LIG    1        8.030   0.266   2.549  0.00  0.00    +0.122 C 
ATOM      8  C   LIG    1        7.387  -1.119   2.491  0.00  0.00    +0.088 C 
ATOM      9  S   LIG    1        6.446  -1.062   0.962  0.00  0.00    -0.130 S 
BRANCH   6  10
ATOM     10  S   LIG    1        7.687   2.889   1.646  0.00  0.00    +0.062 S 
ATOM     11  O   LIG    1        6.559   3.687   1.148  0.00  0.00    -0.153 OA
ATOM     12  O   LIG    1        8.891   2.707   0.826  0.00  0.00    -0.153 OA
BRANCH  10  13
ATOM     13  C   LIG    1        8.180   3.588   3.218  0.00  0.00    +0.106 A 
ATOM     14  C   LIG    1        7.232   4.218   4.023  0.00  0.00    +0.029 A 
ATOM     15  C   LIG    1        7.606   4.723   5.265  0.00  0.00    +0.010 A 
ATOM     16  C   LIG    1        8.925   4.600   5.725  0.00  0.00    -0.018 A 
ATOM     17  C   LIG    1        9.863   3.959   4.903  0.00  0.00    +0.010 A 
ATOM     18  C   LIG    1        9.496   3.453   3.659  0.00  0.00    +0.029 A 
BRANCH  16  19
ATOM     19  C   LIG    1        9.322   5.132   7.065  0.00  0.00    -0.018 A 
ATOM     20  C   LIG    1       10.603   5.663   7.276  0.00  0.00    +0.008 A 
ATOM     21  C   LIG    1       10.976   6.154   8.524  0.00  0.00    +0.001 A 
ATOM     22  C   LIG    1       10.068   6.119   9.578  0.00  0.00    +0.000 A 
ATOM     23  C   LIG    1        8.791   5.598   9.391  0.00  0.00    +0.001 A 
ATOM     24  C   LIG    1        8.422   5.108   8.141  0.00  0.00    +0.008 A 
ENDBRANCH  16  19
ENDBRANCH  10  13
ENDBRANCH   6  10
ENDBRANCH   3   5
BRANCH   1  25
ATOM     25  C   LIG    1        2.146   0.389   1.272  0.00  0.00    +0.106 C 
BRANCH  25  26
ATOM     26  C   LIG    1        1.761  -0.292   2.593  0.00  0.00    -0.027 A 
ATOM     27  C   LIG    1        2.212  -1.585   2.884  0.00  0.00    +0.008 A 
ATOM     28  C   LIG    1        1.864  -2.192   4.087  0.00  0.00    +0.038 A 
ATOM     29  C   LIG    1        1.066  -1.507   5.001  0.00  0.00    +0.123 A 
ATOM     30  F   LIG    1        0.729  -2.096   6.170  0.00  0.00    -0.205 F 
ATOM     31  C   LIG    1        0.614  -0.219   4.721  0.00  0.00    +0.038 A 
ATOM     32  C   LIG    1        0.962   0.389   3.517  0.00  0.00    +0.008 A 
ENDBRANCH  25  26
BRANCH  25  33
ATOM     33  C   LIG    1        1.349  -0.184   0.075  0.00  0.00    +0.068 C 
BRANCH  33  34
ATOM     34  C   LIG    1       -0.181  -0.105   0.217  0.00  0.00    +0.234 C 
BRANCH  34  35
ATOM     35  O   LIG    1       -0.592   1.252   0.337  0.00  0.00    -0.466 OA
BRANCH  35  36
ATOM     36  C   LIG    1       -1.892   1.567   0.585  0.00  0.00    +0.293 C 
ATOM     37  O   LIG    1       -2.804   0.748   0.717  0.00  0.00    -0.253 OA
BRANCH  36  38
ATOM     38  C   LIG    1       -2.147   3.067   0.638  0.00  0.00    +0.039 C 
BRANCH  38  39
ATOM     39  N   LIG    1       -1.495   3.484   1.930  0.00  0.00    +0.387 N 
ATOM     40  H   LIG    1       -0.497   3.353   1.851  0.00  0.00    -0.089 HD
ATOM     41  H   LIG    1       -1.702   4.457   2.104  0.00  0.00    -0.089 HD
ATOM     42  H   LIG    1       -1.859   2.915   2.681  0.00  0.00    -0.089 HD
ENDBRANCH  38  39
BRANCH  38  44
ATOM     43  C   LIG    1       -2.283   5.296  -0.619  0.00  0.00    +0.006 C 
ATOM     44  C   LIG    1       -1.684   3.877  -0.618  0.00  0.00    -0.021 C 
ATOM     45  C   LIG    1       -1.984   3.198  -1.973  0.00  0.00    +0.006 C 
ENDBRANCH  38  44
ENDBRANCH  36  38
ENDBRANCH  35  36
ENDBRANCH  34  35
ENDBRANCH  33  34
ENDBRANCH  25  33
ENDBRANCH   1  25
TORSDOF 13
