REMARK  Name = DB16872
REMARK                            x       y       z     vdW  Elec       q    Type
REMARK                         _______ _______ _______ _____ _____    ______ ____
ROOT
ATOM      1  N   LIG    1        1.496  -0.012   0.454  0.00  0.00    -0.304 NA
ATOM      2  C   LIG    1        2.068  -0.380  -0.850  0.00  0.00    +0.066 C 
ATOM      3  C   LIG    1        1.697  -1.823  -1.267  0.00  0.00    -0.063 C 
ATOM      4  N   LIG    1        2.224  -2.802  -0.189  0.00  0.00    +0.383 N 
ATOM      5  H   LIG    1        3.229  -2.711  -0.148  0.00  0.00    -0.082 HD
ATOM      6  C   LIG    1        1.659  -2.406   1.196  0.00  0.00    -0.063 C 
ATOM      7  C   LIG    1        2.010  -0.923   1.485  0.00  0.00    +0.066 C 
ENDROOT
BRANCH   1   8
ATOM      8  C   LIG    1        0.034   0.138   0.500  0.00  0.00    +0.109 C 
BRANCH   8   9
ATOM      9  C   LIG    1       -0.486   1.227  -0.456  0.00  0.00    +0.213 C 
BRANCH   9  10
ATOM     10  S   LIG    1       -2.352   1.431  -0.226  0.00  0.00    +0.081 S 
ATOM     11  O   LIG    1       -2.495   1.817   1.182  0.00  0.00    -0.147 OA
ATOM     12  O   LIG    1       -2.890   0.106  -0.554  0.00  0.00    -0.147 OA
BRANCH  10  13
ATOM     13  O   LIG    1       -2.700   2.483  -1.186  0.00  0.00    -0.254 OA
ATOM     14  H   LIG    1       -2.580   2.150  -2.089  0.00  0.00    +0.244 HD
ENDBRANCH  10  13
ENDBRANCH   9  10
ENDBRANCH   8   9
ENDBRANCH   1   8
BRANCH   4  15
ATOM     15  C   LIG    1        1.866  -4.275  -0.508  0.00  0.00    -0.051 C 
BRANCH  15  16
ATOM     16  C   LIG    1        2.549  -4.789  -1.794  0.00  0.00    +0.137 C 
BRANCH  16  17
ATOM     17  O   LIG    1        3.949  -4.589  -1.769  0.00  0.00    -0.397 OA
ATOM     18  H   LIG    1        4.327  -4.966  -2.567  0.00  0.00    +0.209 HD
ENDBRANCH  16  17
ENDBRANCH  15  16
ENDBRANCH   4  15
TORSDOF 7
