REMARK  Name = DB16030
REMARK                            x       y       z     vdW  Elec       q    Type
REMARK                         _______ _______ _______ _____ _____    ______ ____
ROOT
ATOM      1  C   LIG    1        1.400  -0.110   0.098  0.00  0.00    +0.017 C 
ATOM      2  C   LIG    1        2.056  -0.849   1.034  0.00  0.00    +0.017 C 
ATOM      3  C   LIG    1        3.540  -0.804   0.997  0.00  0.00    +0.187 C 
ATOM      4  O   LIG    1        4.116  -0.662  -0.088  0.00  0.00    -0.287 OA
ATOM      5  C   LIG    1        4.364  -0.930   2.219  0.00  0.00    +0.002 C 
ATOM      6  C   LIG    1        5.427  -1.774   2.135  0.00  0.00    +0.015 C 
ATOM      7  C   LIG    1        3.936  -0.244   3.527  0.00  0.00    +0.058 C 
ATOM      8  C   LIG    1        2.418  -0.194   3.791  0.00  0.00    +0.113 C 
ATOM      9  N   LIG    1        1.748  -1.473   3.505  0.00  0.00    -0.293 N 
ATOM     10  C   LIG    1        1.764  -2.476   4.434  0.00  0.00    +0.239 C 
ATOM     11  O   LIG    1        2.367  -2.365   5.505  0.00  0.00    -0.271 OA
ATOM     12  C   LIG    1        1.306  -1.670   2.104  0.00  0.00    +0.147 C 
ENDROOT
BRANCH   1  18
ATOM     13  C   LIG    1       -2.242  -1.083  -0.414  0.00  0.00    +0.157 A 
ATOM     14  C   LIG    1       -2.817   0.190  -0.569  0.00  0.00    +0.153 A 
ATOM     15  F   LIG    1       -4.149   0.339  -0.754  0.00  0.00    -0.203 F 
ATOM     16  C   LIG    1       -2.019   1.333  -0.523  0.00  0.00    +0.041 A 
ATOM     17  C   LIG    1       -0.647   1.225  -0.310  0.00  0.00    +0.011 A 
ATOM     18  C   LIG    1       -0.056  -0.027  -0.129  0.00  0.00    -0.022 A 
ATOM     19  C   LIG    1       -0.859  -1.172  -0.192  0.00  0.00    +0.043 A 
BRANCH  13  20
ATOM     20  N   LIG    1       -3.063  -2.316  -0.446  0.00  0.00    +0.009 N 
ATOM     21  O   LIG    1       -2.655  -3.300   0.164  0.00  0.00    -0.130 OA
BRANCH  20  22
ATOM     22  O   LIG    1       -4.108  -2.314  -1.088  0.00  0.00    -0.396 OA
ATOM     23  H   LIG    1       -4.641  -3.084  -1.120  0.00  0.00    +0.329 HD
ENDBRANCH  20  22
ENDBRANCH  13  20
ENDBRANCH   1  18
BRANCH   6  24
ATOM     24  C   LIG    1        6.415  -2.095   3.184  0.00  0.00    -0.022 A 
ATOM     25  C   LIG    1        6.996  -1.106   3.984  0.00  0.00    +0.011 A 
ATOM     26  C   LIG    1        7.918  -1.450   4.969  0.00  0.00    +0.041 A 
ATOM     27  C   LIG    1        8.280  -2.783   5.162  0.00  0.00    +0.153 A 
ATOM     28  F   LIG    1        9.163  -3.077   6.145  0.00  0.00    -0.203 F 
ATOM     29  C   LIG    1        7.727  -3.792   4.354  0.00  0.00    +0.157 A 
ATOM     30  C   LIG    1        6.791  -3.428   3.374  0.00  0.00    +0.043 A 
BRANCH  29  31
ATOM     31  N   LIG    1        8.085  -5.217   4.540  0.00  0.00    +0.009 N 
ATOM     32  O   LIG    1        7.271  -6.070   4.198  0.00  0.00    -0.130 OA
BRANCH  31  33
ATOM     33  O   LIG    1        9.183  -5.495   5.013  0.00  0.00    -0.396 OA
ATOM     34  H   LIG    1        9.773  -4.810   5.261  0.00  0.00    +0.329 HD
ENDBRANCH  31  33
ENDBRANCH  29  31
ENDBRANCH   6  24
BRANCH  10  35
ATOM     35  C   LIG    1        0.993  -3.672   4.143  0.00  0.00    +0.060 C 
ATOM     36  C   LIG    1        1.183  -4.836   4.793  0.00  0.00    +0.013 C 
ENDBRANCH  10  35
TORSDOF 7
