REMARK  Name = DB16062
REMARK                            x       y       z     vdW  Elec       q    Type
REMARK                         _______ _______ _______ _____ _____    ______ ____
ROOT
ATOM      1  C   LIG    1        1.668  -0.100   0.128  0.00  0.00    +0.306 C 
ATOM      2  C   LIG    1        2.502   1.050   0.696  0.00  0.00    +0.242 C 
ATOM      3  N   LIG    1        3.572   1.389  -0.277  0.00  0.00    -0.372 N 
ATOM      4  H   LIG    1        3.531   2.327  -0.664  0.00  0.00    +0.160 HD
ATOM      5  C   LIG    1        4.543   0.588  -0.705  0.00  0.00    +0.071 C 
ATOM      6  C   LIG    1        4.652  -0.804  -0.224  0.00  0.00    +0.052 A 
ATOM      7  C   LIG    1        5.943  -1.319  -0.000  0.00  0.00    +0.034 A 
ATOM      8  C   LIG    1        6.137  -2.631   0.416  0.00  0.00    +0.042 A 
ATOM      9  C   LIG    1        5.040  -3.454   0.622  0.00  0.00    +0.024 A 
ATOM     10  C   LIG    1        3.757  -2.951   0.438  0.00  0.00    +0.057 A 
ATOM     11 CL   LIG    1        7.734  -3.236   0.663  0.00  0.00    -0.084 Cl
ATOM     12  C   LIG    1        3.514  -1.621   0.067  0.00  0.00    +0.185 A 
ATOM     13  N   LIG    1        2.156  -1.262  -0.115  0.00  0.00    -0.044 NA
ENDROOT
BRANCH   5  14
ATOM     14  C   LIG    1        5.425   1.077  -1.672  0.00  0.00    +0.063 A 
ATOM     15  N   LIG    1        5.597   2.422  -1.930  0.00  0.00    -0.360 N 
ATOM     16  H   LIG    1        5.116   3.168  -1.447  0.00  0.00    +0.165 HD
ATOM     17  C   LIG    1        6.520   2.611  -2.926  0.00  0.00    +0.083 A 
ATOM     18  C   LIG    1        6.956   1.363  -3.333  0.00  0.00    +0.019 A 
ATOM     19  C   LIG    1        6.277   0.414  -2.562  0.00  0.00    +0.029 A 
ENDBRANCH   5  14
BRANCH   1  21
ATOM     20  C   LIG    1       -0.607  -0.854  -0.677  0.00  0.00    +0.273 C 
ATOM     21  N   LIG    1        0.323   0.128  -0.131  0.00  0.00    -0.239 N 
ATOM     22  H   LIG    1       -0.075   1.035   0.064  0.00  0.00    +0.291 HD
ENDBRANCH   1  21
TORSDOF 2
