REMARK  Name = DB16938
REMARK                            x       y       z     vdW  Elec       q    Type
REMARK                         _______ _______ _______ _____ _____    ______ ____
ROOT
ATOM      1  C   LIG    1       -4.794   1.457   0.000  0.00  0.00    +0.172 C 
ATOM      2  N   LIG    1       -4.185   0.253   0.000  0.00  0.00    -0.262 NA
ATOM      3  H   LIG    1       -4.495  -0.248  -0.833  0.00  0.00    +0.127 HD
ATOM      4  C   LIG    1       -2.828   0.243   0.000  0.00  0.00    +0.114 C 
ATOM      5  C   LIG    1       -2.030   1.441   0.000  0.00  0.00    +0.070 C 
ATOM      6  C   LIG    1       -0.595   1.502   0.000  0.00  0.00    +0.114 C 
ATOM      7  C   LIG    1        0.028   2.763   0.000  0.00  0.00    +0.034 C 
ATOM      8  C   LIG    1       -0.704   3.946   0.000  0.00  0.00    +0.004 C 
ATOM      9  C   LIG    1       -2.092   3.922   0.000  0.00  0.00    +0.021 C 
ATOM     10  C   LIG    1       -2.753   2.679   0.000  0.00  0.00    +0.057 C 
ATOM     11  N   LIG    1       -4.129   2.621   0.000  0.00  0.00    -0.274 NA
ATOM     12  H   LIG    1       -4.661   3.479   0.000  0.00  0.00    +0.126 HD
ENDROOT
BRANCH   1  13
ATOM     13  N   LIG    1       -6.200   1.433   0.000  0.00  0.00    -0.297 NA
ATOM     14  H   LIG    1       -6.726   2.295   0.000  0.00  0.00    +0.121 HD
ATOM     15  H   LIG    1       -6.684   0.547   0.000  0.00  0.00    +0.121 HD
ENDBRANCH   1  13
BRANCH   4  16
ATOM     16  N   LIG    1       -2.276  -1.038   0.000  0.00  0.00    -0.310 NA
ATOM     17  H   LIG    1       -2.889  -1.840   0.000  0.00  0.00    +0.120 HD
ATOM     18  H   LIG    1       -1.271  -1.144   0.000  0.00  0.00    +0.120 HD
ENDBRANCH   4  16
BRANCH   6  19
ATOM     19  O   LIG    1        0.118   0.315   0.000  0.00  0.00    -0.369 OA
BRANCH  19  20
ATOM     20  C   LIG    1        1.544   0.329  -0.000  0.00  0.00    +0.164 C 
BRANCH  20  21
ATOM     21  C   LIG    1        2.063  -1.133   0.000  0.00  0.00    +0.011 C 
ATOM     22  C   LIG    1        2.906  -1.455  -1.252  0.00  0.00    -0.013 C 
ATOM     23  C   LIG    1        3.322  -2.937  -1.285  0.00  0.00    -0.078 C 
ATOM     24  N   LIG    1        4.126  -3.261   0.000  0.00  0.00    +0.382 N 
ATOM     25  H   LIG    1        4.934  -2.655  -0.000  0.00  0.00    -0.081 HD
ATOM     26  C   LIG    1        3.322  -2.937   1.285  0.00  0.00    -0.078 C 
ATOM     27  C   LIG    1        2.906  -1.455   1.252  0.00  0.00    -0.013 C 
BRANCH  24  28
ATOM     28  C   LIG    1        4.647  -4.723  -0.000  0.00  0.00    -0.040 C 
BRANCH  28  29
ATOM     29  C   LIG    1        6.176  -4.809   0.000  0.00  0.00    -0.027 A 
ATOM     30  C   LIG    1        6.894  -4.849  -1.212  0.00  0.00    +0.044 A 
ATOM     31 CL   LIG    1        6.103  -4.827  -2.752  0.00  0.00    -0.083 Cl
ATOM     32  C   LIG    1        8.288  -4.914  -1.204  0.00  0.00    +0.020 A 
ATOM     33  C   LIG    1        8.985  -4.944   0.000  0.00  0.00    +0.003 A 
ATOM     34  C   LIG    1        8.288  -4.914   1.204  0.00  0.00    +0.020 A 
ATOM     35  C   LIG    1        6.894  -4.849   1.212  0.00  0.00    +0.044 A 
ATOM     36 CL   LIG    1        6.103  -4.828   2.752  0.00  0.00    -0.083 Cl
ENDBRANCH  28  29
ENDBRANCH  24  28
ENDBRANCH  20  21
ENDBRANCH  19  20
ENDBRANCH   6  19
TORSDOF 7
