REMARK  Name = DB16263
REMARK                            x       y       z     vdW  Elec       q    Type
REMARK                         _______ _______ _______ _____ _____    ______ ____
ROOT
ATOM      1  C   LIG    1        1.597  -0.052  -0.154  0.00  0.00    +0.000 C 
ATOM      2  N   LIG    1        2.148  -1.288  -0.003  0.00  0.00    +0.000 N 
ATOM      3  C   LIG    1        1.371  -2.541   0.027  0.00  0.00    +0.000 C 
ATOM      4  C   LIG    1        1.554  -3.202   1.416  0.00  0.00    +0.000 C 
ATOM      5  N   LIG    1        2.999  -3.367   1.664  0.00  0.00    +0.000 N 
ATOM      6  C   LIG    1        3.484  -4.522   2.196  0.00  0.00    +0.000 C 
ATOM      7  O   LIG    1        2.760  -5.361   2.737  0.00  0.00    +0.000 OA
ATOM      8  C   LIG    1        3.790  -2.122   1.613  0.00  0.00    +0.000 C 
ATOM      9  C   LIG    1        3.594  -1.464   0.225  0.00  0.00    +0.000 C 
ATOM     10  O   LIG    1        2.282   0.974  -0.126  0.00  0.00    +0.000 OA
ENDROOT
BRANCH   6  11
ATOM     11  C   LIG    1        4.959  -4.827   2.042  0.00  0.00    +0.000 A 
ATOM     12  C   LIG    1        5.610  -4.579   0.823  0.00  0.00    +0.000 A 
ATOM     13  C   LIG    1        6.964  -4.883   0.651  0.00  0.00    +0.000 A 
ATOM     14  C   LIG    1        7.682  -5.426   1.720  0.00  0.00    +0.000 A 
ATOM     15  C   LIG    1        7.050  -5.676   2.936  0.00  0.00    +0.000 A 
ATOM     16  C   LIG    1        5.696  -5.384   3.100  0.00  0.00    +0.000 A 
ATOM     17  F   LIG    1        5.120  -5.636   4.300  0.00  0.00    +0.000 F 
BRANCH  13  18
ATOM     18  C   LIG    1        7.652  -4.615  -0.685  0.00  0.00    +0.000 C 
BRANCH  18  19
ATOM     19  C   LIG    1        8.007  -5.889  -1.461  0.00  0.00    +0.000 A 
ATOM     20  C   LIG    1        6.964  -6.689  -2.142  0.00  0.00    +0.000 A 
ATOM     21  C   LIG    1        5.637  -6.268  -2.306  0.00  0.00    +0.000 A 
ATOM     22  C   LIG    1        4.712  -7.087  -2.952  0.00  0.00    +0.000 A 
ATOM     23  C   LIG    1        5.104  -8.326  -3.456  0.00  0.00    +0.000 A 
ATOM     24  C   LIG    1        6.427  -8.748  -3.330  0.00  0.00    +0.000 A 
ATOM     25  C   LIG    1        7.364  -7.930  -2.688  0.00  0.00    +0.000 A 
ATOM     26  C   LIG    1        8.813  -8.389  -2.612  0.00  0.00    +0.000 A 
ATOM     27  O   LIG    1        9.267  -9.446  -3.049  0.00  0.00    +0.000 OA
ATOM     28  N   LIG    1        9.598  -7.460  -1.994  0.00  0.00    +0.000 N 
ATOM     29  H   LIG    1       10.582  -7.673  -1.918  0.00  0.00    +0.000 HD
ATOM     30  N   LIG    1        9.239  -6.249  -1.430  0.00  0.00    +0.000 NA
ENDBRANCH  18  19
ENDBRANCH  13  18
ENDBRANCH   6  11
BRANCH   1  31
ATOM     31  C   LIG    1        0.071   0.061  -0.381  0.00  0.00    +0.000 C 
BRANCH  31  40
ATOM     32  C   LIG    1       -2.266   7.046   1.281  0.00  0.00    +0.000 C 
ATOM     33  C   LIG    1       -2.402   6.964  -0.224  0.00  0.00    +0.000 A 
ATOM     34  N   LIG    1       -2.075   5.826  -0.931  0.00  0.00    +0.000 N 
ATOM     35  B   LIG    1       -1.525   4.474  -0.363  0.00  0.00    +0.000 B 
ATOM     36  F   LIG    1       -0.332   4.693   0.300  0.00  0.00    +0.000 F 
ATOM     37  F   LIG    1       -2.447   3.920   0.505  0.00  0.00    +0.000 F 
ATOM     38  N   LIG    1       -1.276   3.474  -1.563  0.00  0.00    +0.000 N 
ATOM     39  C   LIG    1       -0.802   2.173  -1.549  0.00  0.00    +0.000 A 
ATOM     40  C   LIG    1       -0.435   1.499  -0.440  0.00  0.00    +0.000 C 
ATOM     41  C   LIG    1       -0.781   1.710  -2.923  0.00  0.00    +0.000 A 
ATOM     42  C   LIG    1       -1.218   2.690  -3.716  0.00  0.00    +0.000 A 
ATOM     43  C   LIG    1       -1.536   3.810  -2.874  0.00  0.00    +0.000 A 
ATOM     44  C   LIG    1       -2.012   5.017  -3.230  0.00  0.00    +0.000 C 
ATOM     45  C   LIG    1       -2.305   6.079  -2.277  0.00  0.00    +0.000 A 
ATOM     46  C   LIG    1       -2.804   7.370  -2.430  0.00  0.00    +0.000 A 
ATOM     47  C   LIG    1       -3.132   8.084  -3.721  0.00  0.00    +0.000 C 
ATOM     48  C   LIG    1       -2.822   7.911  -1.143  0.00  0.00    +0.000 A 
ENDBRANCH  31  40
ENDBRANCH   1  31
TORSDOF 5
