REMARK  Name = DB16253
REMARK                            x       y       z     vdW  Elec       q    Type
REMARK                         _______ _______ _______ _____ _____    ______ ____
ROOT
ATOM      1  C   LIG    1        3.934   0.518   4.170  0.00  0.00    +0.048 A 
ATOM      2  C   LIG    1        3.986   1.306   5.335  0.00  0.00    +0.032 A 
ATOM      3  C   LIG    1        3.582   2.624   5.719  0.00  0.00    +0.143 A 
ATOM      4  N   LIG    1        3.868   2.874   6.970  0.00  0.00    -0.181 NA
ATOM      5  N   LIG    1        4.456   1.769   7.462  0.00  0.00    -0.277 N 
ATOM      6  H   LIG    1        4.763   1.742   8.424  0.00  0.00    +0.189 HD
ATOM      7  C   LIG    1        4.559   0.770   6.514  0.00  0.00    +0.067 A 
ATOM      8  C   LIG    1        5.085  -0.522   6.572  0.00  0.00    +0.036 A 
ATOM      9  C   LIG    1        5.035  -1.296   5.405  0.00  0.00    -0.015 A 
ATOM     10  C   LIG    1        4.462  -0.776   4.239  0.00  0.00    +0.022 A 
ENDROOT
BRANCH   9  11
ATOM     11  C   LIG    1        5.591  -2.677   5.412  0.00  0.00    -0.009 A 
ATOM     12  C   LIG    1        6.493  -3.120   4.418  0.00  0.00    +0.007 A 
ATOM     13  C   LIG    1        7.100  -2.512   3.265  0.00  0.00    +0.028 A 
ATOM     14  C   LIG    1        7.908  -3.459   2.674  0.00  0.00    +0.083 A 
ATOM     15  N   LIG    1        7.840  -4.620   3.399  0.00  0.00    -0.361 N 
ATOM     16  H   LIG    1        8.361  -5.448   3.146  0.00  0.00    +0.165 HD
ATOM     17  C   LIG    1        6.991  -4.460   4.475  0.00  0.00    +0.047 A 
ATOM     18  C   LIG    1        6.620  -5.353   5.484  0.00  0.00    +0.026 A 
ATOM     19  C   LIG    1        5.736  -4.881   6.451  0.00  0.00    +0.003 A 
ATOM     20  C   LIG    1        5.238  -3.583   6.419  0.00  0.00    +0.009 A 
ENDBRANCH   9  11
BRANCH   1  23
ATOM     21  C   LIG    1        2.369   0.865   0.994  0.00  0.00    +0.109 A 
ATOM     22  O   LIG    1        2.863   0.112   2.004  0.00  0.00    -0.442 OA
ATOM     23  C   LIG    1        3.337   1.021   2.898  0.00  0.00    +0.228 A 
ATOM     24  N   LIG    1        3.183   2.271   2.520  0.00  0.00    -0.217 NA
ATOM     25  C   LIG    1        2.596   2.186   1.341  0.00  0.00    +0.154 A 
BRANCH  21  26
ATOM     26  C   LIG    1        1.735   0.149  -0.179  0.00  0.00    -0.001 C 
BRANCH  26  30
ATOM     27  N   LIG    1       -2.312  -1.512   0.170  0.00  0.00    -0.303 NA
ATOM     28  C   LIG    1       -2.010  -0.611  -0.957  0.00  0.00    +0.066 C 
ATOM     29  C   LIG    1       -0.487  -0.506  -1.226  0.00  0.00    -0.063 C 
ATOM     30  N   LIG    1        0.209   0.033   0.047  0.00  0.00    +0.386 N 
ATOM     31  H   LIG    1       -0.164   0.954   0.233  0.00  0.00    -0.081 HD
ATOM     32  C   LIG    1       -0.145  -0.877   1.251  0.00  0.00    -0.063 C 
ATOM     33  C   LIG    1       -1.686  -0.946   1.378  0.00  0.00    +0.066 C 
BRANCH  27  35
ATOM     34  C   LIG    1       -2.943  -3.454  -1.271  0.00  0.00    +0.024 C 
ATOM     35  C   LIG    1       -2.099  -2.959  -0.073  0.00  0.00    +0.050 C 
ATOM     36  C   LIG    1       -2.434  -3.811   1.174  0.00  0.00    +0.024 C 
ENDBRANCH  27  35
ENDBRANCH  26  30
ENDBRANCH  21  26
ENDBRANCH   1  23
TORSDOF 5
