REMARK  Name = DB16163
REMARK                            x       y       z     vdW  Elec       q    Type
REMARK                         _______ _______ _______ _____ _____    ______ ____
ROOT
ATOM      1  O   LIG    1       -0.720   0.752  -0.019  0.00  0.00    -0.274 OA
ATOM      2  C   LIG    1        0.005  -0.247  -0.065  0.00  0.00    +0.236 C 
ATOM      3  N   LIG    1       -0.514  -1.504  -0.147  0.00  0.00    -0.300 N 
ATOM      4  C   LIG    1        0.288  -2.715   0.108  0.00  0.00    +0.108 C 
ATOM      5  C   LIG    1        0.096  -3.083   1.598  0.00  0.00    +0.019 C 
ATOM      6  C   LIG    1       -1.396  -3.257   1.959  0.00  0.00    +0.003 C 
ATOM      7  C   LIG    1       -2.247  -2.066   1.464  0.00  0.00    +0.019 C 
ATOM      8  C   LIG    1       -1.967  -1.726  -0.020  0.00  0.00    +0.108 C 
ENDROOT
BRANCH   2   9
ATOM      9  C   LIG    1        1.548  -0.064  -0.171  0.00  0.00    +0.159 C 
ATOM     10  N   LIG    1        1.969   1.320   0.063  0.00  0.00    -0.304 N 
ATOM     11  H   LIG    1        1.880   1.743   0.976  0.00  0.00    +0.149 HD
ATOM     12  C   LIG    1        2.420   2.004  -1.005  0.00  0.00    +0.214 C 
ATOM     13  O   LIG    1        2.805   3.170  -1.043  0.00  0.00    -0.276 OA
ATOM     14  C   LIG    1        2.367   1.032  -2.180  0.00  0.00    +0.098 C 
ATOM     15  C   LIG    1        2.071  -0.335  -1.585  0.00  0.00    +0.041 C 
ENDBRANCH   2   9
TORSDOF 1
