REMARK  Name = DB16650
REMARK                            x       y       z     vdW  Elec       q    Type
REMARK                         _______ _______ _______ _____ _____    ______ ____
ROOT
ATOM      1  C   LIG    1       -0.697  -1.321  -0.682  0.00  0.00    +0.169 A 
ATOM      2  N   LIG    1       -2.035  -1.303  -0.951  0.00  0.00    -0.141 NA
ATOM      3  N   LIG    1       -2.788  -0.243  -0.624  0.00  0.00    -0.133 NA
ATOM      4  C   LIG    1       -2.224   0.845  -0.030  0.00  0.00    +0.149 A 
ATOM      5  C   LIG    1       -0.861   0.881   0.258  0.00  0.00    +0.071 A 
ATOM      6  C   LIG    1       -0.064  -0.229  -0.048  0.00  0.00    +0.067 A 
ENDROOT
BRANCH   1  10
ATOM      7  C   LIG    1       -0.055  -5.049  -1.249  0.00  0.00    +0.128 C 
ATOM      8  N   LIG    1       -0.585  -3.732  -0.912  0.00  0.00    -0.313 N 
ATOM      9  H   LIG    1       -1.502  -3.713  -0.490  0.00  0.00    +0.149 HD
ATOM     10  C   LIG    1        0.048  -2.563  -1.125  0.00  0.00    +0.266 C 
ATOM     11  O   LIG    1        1.167  -2.478  -1.635  0.00  0.00    -0.268 OA
ENDBRANCH   1  10
BRANCH   4  12
ATOM     12  N   LIG    1       -2.968   1.983   0.327  0.00  0.00    -0.269 N 
ATOM     13  H   LIG    1       -2.424   2.733   0.727  0.00  0.00    +0.156 HD
ATOM     14  C   LIG    1       -4.300   2.196   0.221  0.00  0.00    +0.221 C 
ATOM     15  O   LIG    1       -5.099   1.381  -0.242  0.00  0.00    -0.275 OA
BRANCH  14  16
ATOM     16  C   LIG    1       -4.852   3.549   0.707  0.00  0.00    +0.075 C 
ATOM     17  C   LIG    1       -5.013   3.687   2.203  0.00  0.00    +0.013 C 
ATOM     18  C   LIG    1       -3.942   4.486   1.480  0.00  0.00    +0.013 C 
ENDBRANCH  14  16
ENDBRANCH   4  12
BRANCH   6  19
ATOM     19  N   LIG    1        1.316  -0.222   0.237  0.00  0.00    -0.310 N 
ATOM     20  H   LIG    1        1.856  -0.835  -0.358  0.00  0.00    +0.152 HD
BRANCH  19  21
ATOM     21  C   LIG    1        2.088   0.521   1.150  0.00  0.00    +0.074 A 
ATOM     22  C   LIG    1        1.621   0.944   2.414  0.00  0.00    +0.152 A 
ATOM     23  C   LIG    1        2.452   1.715   3.260  0.00  0.00    +0.064 A 
ATOM     24  C   LIG    1        3.763   1.987   2.840  0.00  0.00    +0.015 A 
ATOM     25  C   LIG    1        4.239   1.524   1.618  0.00  0.00    +0.003 A 
ATOM     26  C   LIG    1        3.405   0.793   0.780  0.00  0.00    +0.027 A 
BRANCH  23  27
ATOM     27  C   LIG    1        2.000   2.260   4.597  0.00  0.00    +0.185 A 
ATOM     28  N   LIG    1        2.865   2.695   5.514  0.00  0.00    -0.215 NA
ATOM     29  C   LIG    1        2.093   3.077   6.497  0.00  0.00    +0.219 A 
ATOM     30  N   LIG    1        0.787   2.888   6.157  0.00  0.00    -0.254 N 
ATOM     31  C   LIG    1       -0.417   3.127   6.930  0.00  0.00    +0.174 C 
ATOM     32  N   LIG    1        0.725   2.353   4.938  0.00  0.00    -0.150 NA
ENDBRANCH  23  27
BRANCH  22  33
ATOM     33  O   LIG    1        0.365   0.575   2.835  0.00  0.00    -0.493 OA
ATOM     34  C   LIG    1        0.325  -0.659   3.540  0.00  0.00    +0.277 C 
ENDBRANCH  22  33
ENDBRANCH  19  21
ENDBRANCH   6  19
TORSDOF 7
