REMARK  Name = DB16687
REMARK                            x       y       z     vdW  Elec       q    Type
REMARK                         _______ _______ _______ _____ _____    ______ ____
ROOT
ATOM      1  CA  VAL A  6        3.586   1.862   0.240  0.00  0.00    +0.161 C 
ENDROOT
BRANCH   1   3
ATOM      2  C   LEU A  5        1.608   0.358   0.044  0.00  0.00    +0.234 C 
ATOM      3  N   VAL A  6        2.152   1.581   0.157  0.00  0.00    -0.302 N 
ATOM      4  H   VAL A  6        1.545   2.382   0.242  0.00  0.00    +0.150 HD
ATOM      5  O   LEU A  5        2.254  -0.687  -0.052  0.00  0.00    -0.274 OA
BRANCH   2   6
ATOM      6  CA  LEU A  5        0.074   0.309   0.076  0.00  0.00    +0.159 C 
BRANCH   6   8
ATOM      7  C   MET A  4       -1.612  -0.563  -1.525  0.00  0.00    +0.234 C 
ATOM      8  N   LEU A  5       -0.403  -0.621  -0.945  0.00  0.00    -0.302 N 
ATOM      9  H   LEU A  5        0.243  -1.351  -1.209  0.00  0.00    +0.150 HD
ATOM     10  O   MET A  4       -2.461   0.296  -1.276  0.00  0.00    -0.274 OA
BRANCH   7  11
ATOM     11  CA  MET A  4       -1.896  -1.650  -2.572  0.00  0.00    +0.160 C 
BRANCH  11  12
ATOM     12  N   MET A  4       -3.340  -1.835  -2.726  0.00  0.00    -0.302 N 
ATOM     13  H   MET A  4       -3.913  -1.059  -2.425  0.00  0.00    +0.150 HD
ATOM     14  C   PRO A  3       -3.921  -2.914  -3.272  0.00  0.00    +0.234 C 
ATOM     15  O   PRO A  3       -3.309  -3.904  -3.675  0.00  0.00    -0.274 OA
BRANCH  14  16
ATOM     16  CA  PRO A  3       -5.454  -2.848  -3.429  0.00  0.00    +0.162 C 
ATOM     17  N   PRO A  3       -5.885  -2.757  -4.840  0.00  0.00    -0.288 N 
ATOM     18  C   SER A  2       -5.527  -1.741  -5.665  0.00  0.00    +0.239 C 
ATOM     19  O   SER A  2       -4.945  -0.726  -5.281  0.00  0.00    -0.273 OA
ATOM     20  CD  PRO A  3       -6.786  -3.859  -5.180  0.00  0.00    +0.109 C 
ATOM     21  CG  PRO A  3       -7.332  -4.331  -3.840  0.00  0.00    +0.021 C 
ATOM     22  CB  PRO A  3       -6.157  -4.117  -2.902  0.00  0.00    +0.033 C 
BRANCH  18  23
ATOM     23  CA  SER A  2       -5.882  -1.854  -7.160  0.00  0.00    +0.184 C 
BRANCH  23  24
ATOM     24  N   SER A  2       -7.086  -1.064  -7.410  0.00  0.00    -0.303 N 
ATOM     25  H   SER A  2       -7.051  -0.109  -7.084  0.00  0.00    +0.149 HD
ATOM     26  C   ALA A  1       -8.189  -1.507  -8.037  0.00  0.00    +0.199 C 
ATOM     27  O   ALA A  1       -8.306  -2.655  -8.480  0.00  0.00    -0.278 OA
BRANCH  26  28
ATOM     28  CA  ALA A  1       -9.306  -0.444  -8.206  0.00  0.00    +0.010 C 
ATOM     29  CB  ALA A  1       -9.158   0.337  -9.527  0.00  0.00    -0.005 C 
BRANCH  28  30
ATOM     30  N   ALA A  1      -10.634  -1.150  -8.145  0.00  0.00    +0.385 N 
ATOM     31  H1  ALA A  1      -11.371  -0.485  -8.335  0.00  0.00    -0.089 HD
ATOM     32  H2  ALA A  1      -10.647  -1.881  -8.843  0.00  0.00    -0.089 HD
ATOM     33  H3  ALA A  1      -10.758  -1.548  -7.225  0.00  0.00    -0.089 HD
ENDBRANCH  28  30
ENDBRANCH  26  28
ENDBRANCH  23  24
BRANCH  23  34
ATOM     34  CB  SER A  2       -4.737  -1.310  -8.043  0.00  0.00    +0.187 C 
BRANCH  34  35
ATOM     35  OG  SER A  2       -4.883  -1.757  -9.375  0.00  0.00    -0.393 OA
ATOM     36  H   SER A  2       -4.135  -1.441  -9.887  0.00  0.00    +0.209 HD
ENDBRANCH  34  35
ENDBRANCH  23  34
ENDBRANCH  18  23
ENDBRANCH  14  16
ENDBRANCH  11  12
BRANCH  11  37
ATOM     37  CB  MET A  4       -1.254  -1.331  -3.947  0.00  0.00    +0.042 C 
BRANCH  37  38
ATOM     38  CG  MET A  4       -1.650   0.027  -4.557  0.00  0.00    +0.071 C 
BRANCH  38  40
ATOM     39  CE  MET A  4       -2.215   1.690  -6.694  0.00  0.00    +0.084 C 
ATOM     40  SD  MET A  4       -1.336   0.147  -6.338  0.00  0.00    -0.164 S 
ENDBRANCH  38  40
ENDBRANCH  37  38
ENDBRANCH  11  37
ENDBRANCH   7  11
ENDBRANCH   6   8
BRANCH   6  41
ATOM     41  CB  LEU A  5       -0.494  -0.109   1.459  0.00  0.00    +0.034 C 
BRANCH  41  42
ATOM     42  CG  LEU A  5       -0.025   0.719   2.681  0.00  0.00    -0.015 C 
ATOM     43  CD2 LEU A  5       -0.340   2.224   2.540  0.00  0.00    +0.007 C 
ATOM     44  CD1 LEU A  5       -0.580   0.123   3.993  0.00  0.00    +0.007 C 
ENDBRANCH  41  42
ENDBRANCH   6  41
ENDBRANCH   2   6
ENDBRANCH   1   3
BRANCH   1  45
ATOM     45  C   VAL A  6        4.135   1.493   1.633  0.00  0.00    +0.234 C 
ATOM     46  N   ALA A  7        5.331   0.879   1.651  0.00  0.00    -0.303 N 
ATOM     47  H   ALA A  7        5.792   0.674   0.776  0.00  0.00    +0.149 HD
ATOM     48  O   VAL A  6        3.490   1.792   2.639  0.00  0.00    -0.274 OA
BRANCH  46  49
ATOM     49  CA  ALA A  7        6.085   0.542   2.858  0.00  0.00    +0.156 C 
ATOM     50  CB  ALA A  7        7.135  -0.525   2.501  0.00  0.00    +0.038 C 
BRANCH  49  51
ATOM     51  C   ALA A  7        6.724   1.801   3.469  0.00  0.00    +0.234 C 
ATOM     52  N   TYR A  8        5.972   2.455   4.369  0.00  0.00    -0.302 N 
ATOM     53  H   TYR A  8        5.059   2.092   4.602  0.00  0.00    +0.150 HD
ATOM     54  O   ALA A  7        7.840   2.165   3.098  0.00  0.00    -0.274 OA
BRANCH  52  55
ATOM     55  CA  TYR A  8        6.359   3.686   5.055  0.00  0.00    +0.163 C 
BRANCH  55  56
ATOM     56  C   TYR A  8        7.406   3.422   6.151  0.00  0.00    +0.234 C 
ATOM     57  N   ASP A  9        8.426   4.295   6.201  0.00  0.00    -0.302 N 
ATOM     58  H   ASP A  9        8.474   5.040   5.520  0.00  0.00    +0.150 HD
ATOM     59  O   TYR A  8        7.253   2.476   6.925  0.00  0.00    -0.274 OA
BRANCH  57  60
ATOM     60  CA  ASP A  9        9.485   4.299   7.214  0.00  0.00    +0.169 C 
BRANCH  60  61
ATOM     61  C   ASP A  9        8.936   4.787   8.564  0.00  0.00    +0.235 C 
ATOM     62  N   ALA A 10        9.113   3.956   9.608  0.00  0.00    -0.301 N 
ATOM     63  H   ALA A 10        9.605   3.089   9.445  0.00  0.00    +0.150 HD
ATOM     64  O   ASP A  9        8.379   5.883   8.627  0.00  0.00    -0.274 OA
BRANCH  62  65
ATOM     65  CA  ALA A 10        8.672   4.161  11.001  0.00  0.00    +0.179 C 
ATOM     66  CB  ALA A 10        7.121   4.173  11.092  0.00  0.00    +0.040 C 
BRANCH  65  67
ATOM     67  C   ALA A 10        9.425   5.367  11.689  0.00  0.00    +0.325 C 
ATOM     68  OXT ALA A 10        8.717   6.322  12.088  0.00  0.00    -0.249 OA
BRANCH  67  69
ATOM     69  O   ALA A 10       10.666   5.219  11.783  0.00  0.00    -0.479 OA
ATOM     70  H   ALA A 10       11.189   5.889  12.178  0.00  0.00    +0.295 HD
ENDBRANCH  67  69
ENDBRANCH  65  67
ENDBRANCH  62  65
ENDBRANCH  60  61
BRANCH  60  71
ATOM     71  CB  ASP A  9       10.726   5.135   6.805  0.00  0.00    +0.152 C 
BRANCH  71  72
ATOM     72  CG  ASP A  9       11.209   4.884   5.367  0.00  0.00    +0.307 C 
ATOM     73  OD2 ASP A  9       10.805   5.669   4.479  0.00  0.00    -0.251 OA
BRANCH  72  74
ATOM     74  OD1 ASP A  9       11.838   3.824   5.155  0.00  0.00    -0.481 OA
ATOM     75  HD1 ASP A  9       12.151   3.629   4.294  0.00  0.00    +0.295 HD
ENDBRANCH  72  74
ENDBRANCH  71  72
ENDBRANCH  60  71
ENDBRANCH  57  60
ENDBRANCH  55  56
BRANCH  55  76
ATOM     76  CB  TYR A  8        5.081   4.351   5.613  0.00  0.00    +0.067 C 
BRANCH  76  77
ATOM     77  CG  TYR A  8        5.294   5.596   6.462  0.00  0.00    -0.045 A 
ATOM     78  CD2 TYR A  8        5.827   6.765   5.880  0.00  0.00    +0.007 A 
ATOM     79  CE2 TYR A  8        6.040   7.914   6.666  0.00  0.00    +0.045 A 
ATOM     80  CZ  TYR A  8        5.712   7.902   8.036  0.00  0.00    +0.117 A 
ATOM     81  CE1 TYR A  8        5.174   6.738   8.619  0.00  0.00    +0.045 A 
ATOM     82  CD1 TYR A  8        4.969   5.587   7.835  0.00  0.00    +0.007 A 
BRANCH  80  83
ATOM     83  OH  TYR A  8        5.918   9.014   8.799  0.00  0.00    -0.507 OA
ATOM     84  HH  TYR A  8        6.338   9.727   8.315  0.00  0.00    +0.292 HD
ENDBRANCH  80  83
ENDBRANCH  76  77
ENDBRANCH  55  76
ENDBRANCH  52  55
ENDBRANCH  49  51
ENDBRANCH  46  49
ENDBRANCH   1  45
BRANCH   1  85
ATOM     85  CB  VAL A  6        3.860   3.374  -0.029  0.00  0.00    +0.012 C 
ATOM     86  CG2 VAL A  6        5.307   3.841   0.248  0.00  0.00    +0.009 C 
ATOM     87  CG1 VAL A  6        3.471   3.753  -1.470  0.00  0.00    +0.009 C 
ENDBRANCH   1  85
TORSDOF 34
