REMARK  Name = DB16231
REMARK                            x       y       z     vdW  Elec       q    Type
REMARK                         _______ _______ _______ _____ _____    ______ ____
ROOT
ATOM      1  C   LIG    1        1.456  -0.651  -0.266  0.00  0.00    +0.252 C 
ATOM      2  N   LIG    1        2.104   0.117  -1.170  0.00  0.00    -0.281 N 
ATOM      3  H   LIG    1        1.528   0.741  -1.715  0.00  0.00    +0.155 HD
ATOM      4  O   LIG    1        1.977  -1.510   0.448  0.00  0.00    -0.270 OA
ENDROOT
BRANCH   1  10
ATOM      5  C   LIG    1       -3.617  -1.021   0.307  0.00  0.00    +0.086 C 
ATOM      6  C   LIG    1       -2.170  -0.637   0.101  0.00  0.00    +0.106 A 
ATOM      7  O   LIG    1       -1.949   0.664  -0.197  0.00  0.00    -0.464 OA
ATOM      8  C   LIG    1       -0.616   0.832  -0.348  0.00  0.00    +0.115 A 
ATOM      9  C   LIG    1       -0.177   2.250  -0.646  0.00  0.00    +0.087 C 
ATOM     10  C   LIG    1        0.032  -0.402  -0.205  0.00  0.00    +0.081 A 
ATOM     11  C   LIG    1       -0.967  -1.335   0.172  0.00  0.00    +0.003 A 
ATOM     12  C   LIG    1       -0.809  -2.818   0.448  0.00  0.00    +0.048 C 
ENDBRANCH   1  10
BRANCH   2  13
ATOM     13  C   LIG    1        3.475   0.171  -1.484  0.00  0.00    +0.034 A 
ATOM     14  C   LIG    1        4.494  -0.412  -0.712  0.00  0.00    +0.023 A 
ATOM     15  C   LIG    1        5.823  -0.290  -1.109  0.00  0.00    +0.002 A 
ATOM     16  C   LIG    1        6.139   0.412  -2.269  0.00  0.00    +0.000 A 
ATOM     17  C   LIG    1        5.137   1.002  -3.035  0.00  0.00    +0.002 A 
ATOM     18  C   LIG    1        3.807   0.883  -2.640  0.00  0.00    +0.023 A 
ENDBRANCH   2  13
TORSDOF 2
