REMARK  Name = DB16836
REMARK                            x       y       z     vdW  Elec       q    Type
REMARK                         _______ _______ _______ _____ _____    ______ ____
ROOT
ATOM      1  C   LIG    1       -0.072  -0.019   0.173  0.00  0.00    +0.068 A 
ATOM      2  C   LIG    1       -0.794  -1.220   0.226  0.00  0.00    +0.130 A 
ATOM      3  C   LIG    1       -2.183  -1.209   0.142  0.00  0.00    +0.092 A 
ATOM      4  C   LIG    1       -2.883  -0.011   0.017  0.00  0.00    +0.135 A 
ATOM      5  C   LIG    1       -2.194   1.218  -0.020  0.00  0.00    +0.106 A 
ATOM      6  C   LIG    1       -2.896   2.550  -0.136  0.00  0.00    +0.197 A 
ATOM      7  C   LIG    1       -1.993   3.694  -0.126  0.00  0.00    +0.098 A 
ATOM      8  C   LIG    1       -0.654   3.555  -0.020  0.00  0.00    +0.139 A 
ATOM      9  O   LIG    1       -0.034   2.348   0.038  0.00  0.00    -0.454 OA
ATOM     10  O   LIG    1       -4.116   2.674  -0.226  0.00  0.00    -0.287 OA
ATOM     11  C   LIG    1       -0.785   1.187   0.060  0.00  0.00    +0.152 A 
ENDROOT
BRANCH   8  12
ATOM     12  C   LIG    1        0.333   4.664  -0.050  0.00  0.00    +0.018 A 
ATOM     13  C   LIG    1        1.570   4.525   0.596  0.00  0.00    +0.015 A 
ATOM     14  C   LIG    1        2.497   5.564   0.587  0.00  0.00    +0.046 A 
ATOM     15  C   LIG    1        2.193   6.756  -0.066  0.00  0.00    +0.117 A 
ATOM     16  C   LIG    1        0.967   6.914  -0.709  0.00  0.00    +0.046 A 
ATOM     17  C   LIG    1        0.042   5.873  -0.698  0.00  0.00    +0.015 A 
BRANCH  15  18
ATOM     18  O   LIG    1        3.105   7.778  -0.076  0.00  0.00    -0.507 OA
ATOM     19  H   LIG    1        2.799   8.552  -0.554  0.00  0.00    +0.292 HD
ENDBRANCH  15  18
ENDBRANCH   8  12
BRANCH   1  20
ATOM     20  C   LIG    1        1.466  -0.010   0.260  0.00  0.00    +0.187 C 
ATOM     21  C   LIG    1        1.982  -0.218   1.709  0.00  0.00    +0.179 C 
ATOM     22  C   LIG    1        3.527  -0.307   1.744  0.00  0.00    +0.177 C 
ATOM     23  C   LIG    1        4.073  -1.284   0.672  0.00  0.00    +0.176 C 
ATOM     24  C   LIG    1        3.445  -0.990  -0.719  0.00  0.00    +0.175 C 
ATOM     25  O   LIG    1        2.023  -1.005  -0.600  0.00  0.00    -0.361 OA
BRANCH  21  26
ATOM     26  O   LIG    1        1.514   0.807   2.571  0.00  0.00    -0.386 OA
ATOM     27  H   LIG    1        1.715   0.558   3.477  0.00  0.00    +0.210 HD
ENDBRANCH  21  26
BRANCH  22  28
ATOM     28  O   LIG    1        3.992  -0.643   3.042  0.00  0.00    -0.386 OA
ATOM     29  H   LIG    1        3.686  -1.527   3.257  0.00  0.00    +0.210 HD
ENDBRANCH  22  28
BRANCH  23  30
ATOM     30  O   LIG    1        5.489  -1.231   0.629  0.00  0.00    -0.386 OA
ATOM     31  H   LIG    1        5.802  -1.919   0.037  0.00  0.00    +0.210 HD
ENDBRANCH  23  30
BRANCH  24  32
ATOM     32  C   LIG    1        3.794  -2.045  -1.793  0.00  0.00    +0.190 C 
BRANCH  32  33
ATOM     33  O   LIG    1        5.137  -1.951  -2.223  0.00  0.00    -0.392 OA
ATOM     34  H   LIG    1        5.278  -2.591  -2.925  0.00  0.00    +0.210 HD
ENDBRANCH  32  33
ENDBRANCH  24  32
ENDBRANCH   1  20
BRANCH   2  35
ATOM     35  O   LIG    1       -0.171  -2.433   0.369  0.00  0.00    -0.506 OA
ATOM     36  H   LIG    1       -0.788  -3.168   0.380  0.00  0.00    +0.292 HD
ENDBRANCH   2  35
BRANCH   4  37
ATOM     37  O   LIG    1       -4.251  -0.099  -0.059  0.00  0.00    -0.506 OA
ATOM     38  H   LIG    1       -4.572  -1.002  -0.021  0.00  0.00    +0.292 HD
ENDBRANCH   4  37
TORSDOF 10
