REMARK  Name = DB16171
REMARK                            x       y       z     vdW  Elec       q    Type
REMARK                         _______ _______ _______ _____ _____    ______ ____
ROOT
ATOM      1  C   LIG    1        1.907  -1.577  -0.070  0.00  0.00    -0.044 A 
ATOM      2  C   LIG    1        2.217  -2.083  -1.336  0.00  0.00    +0.052 A 
ATOM      3  C   LIG    1        2.572  -3.425  -1.492  0.00  0.00    +0.159 A 
ATOM      4  C   LIG    1        2.620  -4.274  -0.382  0.00  0.00    +0.173 A 
ATOM      5  C   LIG    1        2.332  -3.760   0.887  0.00  0.00    +0.050 A 
ATOM      6  C   LIG    1        1.979  -2.421   1.043  0.00  0.00    +0.007 A 
ENDROOT
BRANCH   3   7
ATOM      7  O   LIG    1        2.861  -3.904  -2.744  0.00  0.00    -0.503 OA
ATOM      8  H   LIG    1        3.083  -4.839  -2.728  0.00  0.00    +0.292 HD
ENDBRANCH   3   7
BRANCH   1   9
ATOM      9  C   LIG    1        1.497  -0.115   0.099  0.00  0.00    +0.036 C 
BRANCH   9  11
ATOM     10  C   LIG    1       -0.808  -0.538   1.180  0.00  0.00    +0.004 C 
ATOM     11  C   LIG    1       -0.040   0.162   0.020  0.00  0.00    +0.050 C 
BRANCH  11  12
ATOM     12  N   LIG    1       -0.536  -0.402  -1.346  0.00  0.00    +0.397 N 
ATOM     13  H   LIG    1       -0.204  -1.354  -1.406  0.00  0.00    -0.060 HD
ATOM     14  H   LIG    1       -0.104   0.108  -2.104  0.00  0.00    -0.060 HD
BRANCH  12  15
ATOM     15  N   LIG    1       -2.004  -0.409  -1.506  0.00  0.00    -0.380 NA
ATOM     16  H   LIG    1       -2.194   0.445  -2.010  0.00  0.00    +0.098 HD
ATOM     17  H   LIG    1       -2.349  -0.266  -0.568  0.00  0.00    +0.098 HD
ENDBRANCH  12  15
ENDBRANCH  11  12
BRANCH  11  18
ATOM     18  C   LIG    1       -0.272   1.716   0.067  0.00  0.00    +0.296 C 
ATOM     19  O   LIG    1        0.033   2.304   1.131  0.00  0.00    -0.252 OA
BRANCH  18  20
ATOM     20  O   LIG    1       -0.732   2.321  -0.930  0.00  0.00    -0.481 OA
ATOM     21  H   LIG    1       -0.867   3.248  -0.894  0.00  0.00    +0.295 HD
ENDBRANCH  18  20
ENDBRANCH  11  18
ENDBRANCH   9  11
ENDBRANCH   1   9
BRANCH   4  22
ATOM     22  O   LIG    1        2.961  -5.590  -0.564  0.00  0.00    -0.400 OA
BRANCH  22  23
ATOM     23  P   LIG    1        2.686  -6.971   0.495  0.00  0.00    +0.528 P 
ATOM     24  O   LIG    1        3.840  -6.948   1.514  0.00  0.00    -0.216 OA
BRANCH  23  25
ATOM     25  O   LIG    1        2.720  -8.205  -0.424  0.00  0.00    -0.293 OA
ATOM     26  H   LIG    1        1.974  -8.168  -1.043  0.00  0.00    +0.223 HD
ENDBRANCH  23  25
BRANCH  23  27
ATOM     27  O   LIG    1        1.306  -6.748   1.144  0.00  0.00    -0.293 OA
ATOM     28  H   LIG    1        0.619  -6.773   0.460  0.00  0.00    +0.223 HD
ENDBRANCH  23  27
ENDBRANCH  22  23
ENDBRANCH   4  22
TORSDOF 11
