REMARK  Name = DB16273
REMARK                            x       y       z     vdW  Elec       q    Type
REMARK                         _______ _______ _______ _____ _____    ______ ____
ROOT
ATOM      1  N   LIG    1        1.317   0.008   0.014  0.00  0.00    -0.281 N 
ATOM      2  H   LIG    1        1.687  -0.895  -0.248  0.00  0.00    +0.155 HD
ATOM      3  C   LIG    1        2.240   0.937   0.349  0.00  0.00    +0.252 C 
ATOM      4  O   LIG    1        1.931   2.055   0.771  0.00  0.00    -0.270 OA
ENDROOT
BRANCH   1   8
ATOM      5  C   LIG    1       -2.875   0.029   0.010  0.00  0.00    +0.117 A 
ATOM      6  C   LIG    1       -2.210   1.253   0.012  0.00  0.00    +0.047 A 
ATOM      7  C   LIG    1       -0.818   1.285   0.016  0.00  0.00    +0.027 A 
ATOM      8  C   LIG    1       -0.088   0.085   0.026  0.00  0.00    +0.034 A 
ATOM      9  C   LIG    1       -0.767  -1.136   0.012  0.00  0.00    +0.027 A 
ATOM     10  C   LIG    1       -2.159  -1.166   0.009  0.00  0.00    +0.047 A 
BRANCH   5  11
ATOM     11  O   LIG    1       -4.244  -0.001   0.002  0.00  0.00    -0.507 OA
ATOM     12  H   LIG    1       -4.635   0.876  -0.011  0.00  0.00    +0.292 HD
ENDBRANCH   5  11
ENDBRANCH   1   8
BRANCH   3  13
ATOM     13  C   LIG    1        3.724   0.561   0.208  0.00  0.00    +0.078 A 
ATOM     14  C   LIG    1        4.248  -0.693  -0.249  0.00  0.00    +0.129 A 
ATOM     15  C   LIG    1        5.637  -0.883  -0.323  0.00  0.00    +0.046 A 
ATOM     16  C   LIG    1        6.522   0.125   0.041  0.00  0.00    +0.004 A 
ATOM     17  C   LIG    1        6.032   1.343   0.487  0.00  0.00    +0.001 A 
ATOM     18  C   LIG    1        4.660   1.553   0.567  0.00  0.00    +0.017 A 
BRANCH  14  19
ATOM     19  O   LIG    1        3.549  -1.701  -0.612  0.00  0.00    -0.506 OA
ATOM     20  H   LIG    1        2.614  -1.655  -0.591  0.00  0.00    +0.292 HD
ENDBRANCH  14  19
ENDBRANCH   3  13
TORSDOF 4
