REMARK  Name = DB16047
REMARK                            x       y       z     vdW  Elec       q    Type
REMARK                         _______ _______ _______ _____ _____    ______ ____
ROOT
ATOM      1  C   LIG    1        1.507  -0.029   0.006  0.00  0.00    +0.059 C 
ATOM      2  C   LIG    1        2.301  -0.801  -0.909  0.00  0.00    +0.252 C 
ATOM      3  O   LIG    1        1.937  -1.576  -1.793  0.00  0.00    -0.270 OA
ATOM      4  N   LIG    1        3.570  -0.492  -0.608  0.00  0.00    -0.248 N 
ATOM      5  H   LIG    1        4.363  -0.888  -1.091  0.00  0.00    +0.158 HD
ATOM      6  C   LIG    1        3.686   0.392   0.391  0.00  0.00    +0.252 C 
ATOM      7  O   LIG    1        4.742   0.825   0.852  0.00  0.00    -0.270 OA
ATOM      8  C   LIG    1        2.335   0.691   0.781  0.00  0.00    +0.061 C 
ENDROOT
BRANCH   1  20
ATOM      9  C   LIG    1       -3.194  -1.769  -0.157  0.00  0.00    +0.149 C 
ATOM     10  N   LIG    1       -2.088  -0.826  -0.100  0.00  0.00    -0.349 N 
ATOM     11  C   LIG    1       -2.199   0.546   0.044  0.00  0.00    +0.053 A 
ATOM     12  C   LIG    1       -3.337   1.366   0.161  0.00  0.00    +0.076 A 
ATOM     13  C   LIG    1       -3.078   2.727   0.274  0.00  0.00    +0.168 A 
ATOM     14  C   LIG    1       -1.819   3.254   0.275  0.00  0.00    +0.167 A 
ATOM     15  C   LIG    1       -0.675   2.475   0.167  0.00  0.00    +0.060 A 
ATOM     16  O   LIG    1       -1.895   4.602   0.427  0.00  0.00    -0.453 OA
ATOM     17  C   LIG    1       -3.254   4.923   0.311  0.00  0.00    +0.466 C 
ATOM     18  O   LIG    1       -3.981   3.731   0.428  0.00  0.00    -0.453 OA
ATOM     19  C   LIG    1       -0.856   1.078   0.061  0.00  0.00    +0.011 A 
ATOM     20  C   LIG    1        0.043  -0.043  -0.037  0.00  0.00    +0.013 A 
ATOM     21  C   LIG    1       -0.757  -1.165  -0.155  0.00  0.00    +0.095 A 
ENDBRANCH   1  20
BRANCH   8  22
ATOM     22  C   LIG    1        2.030   1.592   1.898  0.00  0.00    +0.033 A 
ATOM     23  C   LIG    1        1.004   1.467   2.901  0.00  0.00    +0.031 A 
ATOM     24  C   LIG    1        0.016   0.525   3.240  0.00  0.00    +0.050 A 
ATOM     25  C   LIG    1       -0.836   0.790   4.315  0.00  0.00    +0.124 A 
ATOM     26  F   LIG    1       -1.795  -0.107   4.636  0.00  0.00    -0.205 F 
ATOM     27  C   LIG    1       -0.715   1.961   5.064  0.00  0.00    +0.042 A 
ATOM     28  C   LIG    1        0.265   2.910   4.772  0.00  0.00    +0.049 A 
ATOM     29  C   LIG    1        1.111   2.638   3.691  0.00  0.00    +0.136 A 
ATOM     30  O   LIG    1        2.128   3.434   3.258  0.00  0.00    -0.462 OA
ATOM     31  C   LIG    1        2.677   2.790   2.192  0.00  0.00    +0.205 A 
ENDBRANCH   8  22
TORSDOF 2
