REMARK  Name = DB16072
REMARK                            x       y       z     vdW  Elec       q    Type
REMARK                         _______ _______ _______ _____ _____    ______ ____
ROOT
ATOM      1  C   LIG    1       -0.019  -0.221  -0.092  0.00  0.00    +0.270 C 
ENDROOT
BRANCH   1   2
ATOM      2  O   LIG    1       -0.531   1.107  -0.012  0.00  0.00    -0.485 OA
BRANCH   2  18
ATOM      3  C   LIG    1       -2.552   4.831  -0.507  0.00  0.00    +0.217 C 
ATOM      4  C   LIG    1       -2.632   5.454  -1.954  0.00  0.00    +0.112 C 
ATOM      5  C   LIG    1       -3.711   6.619  -1.925  0.00  0.00    +0.057 C 
ATOM      6  C   LIG    1       -5.119   6.047  -1.488  0.00  0.00    +0.015 C 
ATOM      7  C   LIG    1       -5.042   4.518  -1.168  0.00  0.00    -0.027 C 
ATOM      8  C   LIG    1       -4.557   3.877  -2.532  0.00  0.00    +0.009 C 
ATOM      9  C   LIG    1       -6.337   3.795  -0.603  0.00  0.00    -0.057 C 
ATOM     10  N   LIG    1       -6.796   4.353   0.782  0.00  0.00    +0.382 N 
ATOM     11  H   LIG    1       -7.497   3.700   1.102  0.00  0.00    -0.081 HD
ATOM     12  C   LIG    1       -5.687   4.348   1.866  0.00  0.00    -0.077 C 
ATOM     13  C   LIG    1       -4.387   4.946   1.295  0.00  0.00    -0.003 C 
ATOM     14  C   LIG    1       -6.126   2.245  -0.380  0.00  0.00    +0.021 C 
ATOM     15  C   LIG    1       -4.687   1.860   0.005  0.00  0.00    -0.041 A 
ATOM     16  C   LIG    1       -4.230   0.541   0.125  0.00  0.00    +0.007 A 
ATOM     17  C   LIG    1       -2.856   0.254   0.185  0.00  0.00    +0.050 A 
ATOM     18  C   LIG    1       -1.899   1.284   0.060  0.00  0.00    +0.162 A 
ATOM     19  C   LIG    1       -2.374   2.591  -0.037  0.00  0.00    +0.167 A 
ATOM     20  C   LIG    1       -3.716   2.860   0.049  0.00  0.00    +0.011 A 
ATOM     21  C   LIG    1       -3.152   4.388  -2.960  0.00  0.00    +0.039 C 
ATOM     22  C   LIG    1       -3.953   4.327  -0.070  0.00  0.00    +0.042 C 
ATOM     23  O   LIG    1       -1.644   3.714  -0.356  0.00  0.00    -0.481 OA
BRANCH   5  24
ATOM     24  C   LIG    1       -3.758   7.726  -3.079  0.00  0.00    +0.074 C 
ATOM     25  C   LIG    1       -4.792   7.378  -4.193  0.00  0.00    +0.042 C 
BRANCH  24  26
ATOM     26  C   LIG    1       -3.927   9.220  -2.541  0.00  0.00    -0.009 C 
ATOM     27  C   LIG    1       -4.111  10.238  -3.704  0.00  0.00    +0.013 C 
ATOM     28  C   LIG    1       -5.165   9.360  -1.617  0.00  0.00    +0.013 C 
ATOM     29  C   LIG    1       -2.685   9.700  -1.731  0.00  0.00    +0.013 C 
ENDBRANCH  24  26
BRANCH  24  30
ATOM     30  O   LIG    1       -2.543   7.695  -3.814  0.00  0.00    -0.388 OA
ATOM     31  H   LIG    1       -2.586   8.366  -4.499  0.00  0.00    +0.210 HD
ENDBRANCH  24  30
ENDBRANCH   5  24
BRANCH   4  32
ATOM     32  O   LIG    1       -1.319   5.992  -2.172  0.00  0.00    -0.373 OA
ATOM     33  C   LIG    1       -0.340   5.181  -2.811  0.00  0.00    +0.194 C 
ENDBRANCH   4  32
BRANCH  10  34
ATOM     34  C   LIG    1       -7.558   5.700   0.728  0.00  0.00    -0.075 C 
BRANCH  34  35
ATOM     35  C   LIG    1       -8.734   5.643   1.716  0.00  0.00    -0.028 C 
ATOM     36  C   LIG    1       -9.992   6.420   1.421  0.00  0.00    +0.002 C 
ATOM     37  C   LIG    1       -9.996   4.904   1.346  0.00  0.00    +0.002 C 
ENDBRANCH  34  35
ENDBRANCH  10  34
ENDBRANCH   2  18
ENDBRANCH   1   2
BRANCH   1  38
ATOM     38  C   LIG    1        1.510  -0.180  -0.204  0.00  0.00    +0.270 C 
BRANCH  38  39
ATOM     39  O   LIG    1        2.058   0.343   1.002  0.00  0.00    -0.485 OA
BRANCH  39  40
ATOM     40  C   LIG    1        3.431   0.391   1.142  0.00  0.00    +0.162 A 
ATOM     41  C   LIG    1        3.925   0.760   2.391  0.00  0.00    +0.167 A 
ATOM     42  O   LIG    1        3.200   0.925   3.550  0.00  0.00    -0.481 OA
ATOM     43  C   LIG    1        4.118   1.144   4.646  0.00  0.00    +0.217 C 
ATOM     44  C   LIG    1        4.131   0.024   5.758  0.00  0.00    +0.112 C 
ATOM     45  C   LIG    1        5.226   0.419   6.837  0.00  0.00    +0.057 C 
ATOM     46  C   LIG    1        6.646   0.543   6.152  0.00  0.00    +0.015 C 
ATOM     47  C   LIG    1        6.565   0.282   4.611  0.00  0.00    -0.027 C 
ATOM     48  C   LIG    1        6.003  -1.196   4.519  0.00  0.00    +0.009 C 
ATOM     49  C   LIG    1        7.875   0.468   3.733  0.00  0.00    -0.057 C 
ATOM     50  N   LIG    1        8.417   1.938   3.720  0.00  0.00    +0.382 N 
ATOM     51  H   LIG    1        9.106   1.946   2.981  0.00  0.00    -0.081 HD
ATOM     52  C   LIG    1        7.354   2.986   3.298  0.00  0.00    -0.077 C 
ATOM     53  C   LIG    1        6.045   2.756   4.080  0.00  0.00    -0.003 C 
ATOM     54  C   LIG    1        7.645   0.097   2.214  0.00  0.00    +0.021 C 
ATOM     55  C   LIG    1        6.221   0.390   1.706  0.00  0.00    -0.041 A 
ATOM     56  C   LIG    1        5.746   0.032   0.436  0.00  0.00    +0.007 A 
ATOM     57  C   LIG    1        4.584  -1.331   5.143  0.00  0.00    +0.039 C 
ATOM     58  C   LIG    1        5.530   1.285   4.020  0.00  0.00    +0.042 C 
ATOM     59  C   LIG    1        5.273   0.860   2.614  0.00  0.00    +0.011 A 
ATOM     60  C   LIG    1        4.372   0.062   0.143  0.00  0.00    +0.050 A 
BRANCH  44  61
ATOM     61  O   LIG    1        2.817   0.089   6.333  0.00  0.00    -0.373 OA
ATOM     62  C   LIG    1        1.793  -0.746   5.804  0.00  0.00    +0.194 C 
ENDBRANCH  44  61
BRANCH  45  63
ATOM     63  C   LIG    1        5.229  -0.257   8.287  0.00  0.00    +0.074 C 
ATOM     64  C   LIG    1        6.222  -1.456   8.383  0.00  0.00    +0.042 C 
BRANCH  63  65
ATOM     65  C   LIG    1        5.416   0.781   9.486  0.00  0.00    -0.009 C 
ATOM     66  C   LIG    1        5.557   0.062  10.860  0.00  0.00    +0.013 C 
ATOM     67  C   LIG    1        6.686   1.651   9.297  0.00  0.00    +0.013 C 
ATOM     68  C   LIG    1        4.203   1.750   9.621  0.00  0.00    +0.013 C 
ENDBRANCH  63  65
BRANCH  63  69
ATOM     69  O   LIG    1        3.988  -0.913   8.507  0.00  0.00    -0.388 OA
ATOM     70  H   LIG    1        4.007  -1.313   9.379  0.00  0.00    +0.210 HD
ENDBRANCH  63  69
ENDBRANCH  45  63
BRANCH  50  71
ATOM     71  C   LIG    1        9.215   2.442   4.952  0.00  0.00    -0.075 C 
BRANCH  71  72
ATOM     72  C   LIG    1       10.179   1.379   5.513  0.00  0.00    -0.028 C 
ATOM     73  C   LIG    1       11.415   0.993   4.738  0.00  0.00    +0.002 C 
ATOM     74  C   LIG    1       11.537   1.799   6.018  0.00  0.00    +0.002 C 
ENDBRANCH  71  72
ENDBRANCH  50  71
ENDBRANCH  39  40
ENDBRANCH  38  39
ENDBRANCH   1  38
TORSDOF 17
