REMARK  Name = DB16070
REMARK                            x       y       z     vdW  Elec       q    Type
REMARK                         _______ _______ _______ _____ _____    ______ ____
ROOT
ATOM      1  C   LIG    1       -0.071  -0.150   0.069  0.00  0.00    +0.192 C 
ENDROOT
BRANCH   1   2
ATOM      2  C   LIG    1        1.424   0.158  -0.147  0.00  0.00    +0.237 C 
ATOM      3  N   LIG    1        1.799   1.421   0.120  0.00  0.00    -0.304 N 
ATOM      4  H   LIG    1        1.096   2.091   0.395  0.00  0.00    +0.149 HD
ATOM      5  O   LIG    1        2.187  -0.737  -0.514  0.00  0.00    -0.274 OA
BRANCH   3   6
ATOM      6  C   LIG    1        3.164   1.951   0.016  0.00  0.00    +0.146 C 
BRANCH   6   7
ATOM      7  C   LIG    1        3.637   2.074   1.458  0.00  0.00    +0.187 C 
ATOM      8  O   LIG    1        3.057   2.769   2.295  0.00  0.00    -0.292 OA
BRANCH   7   9
ATOM      9  C   LIG    1        4.911   1.308   1.848  0.00  0.00    +0.149 C 
ATOM     10  O   LIG    1        5.556   1.672   3.043  0.00  0.00    -0.361 OA
ATOM     11  C   LIG    1        6.210   2.053   1.861  0.00  0.00    +0.203 C 
ATOM     12  C   LIG    1        4.946  -0.198   1.525  0.00  0.00    +0.052 C 
ENDBRANCH   7   9
ENDBRANCH   6   7
BRANCH   6  13
ATOM     13  C   LIG    1        3.202   3.332  -0.690  0.00  0.00    +0.060 C 
BRANCH  13  14
ATOM     14  C   LIG    1        2.810   3.269  -2.164  0.00  0.00    -0.071 C 
ATOM     15  C   LIG    1        2.630   4.558  -2.947  0.00  0.00    +0.031 C 
ATOM     16  C   LIG    1        2.046   4.117  -4.285  0.00  0.00    +0.008 C 
ATOM     17  C   LIG    1        2.240   2.613  -4.389  0.00  0.00    +0.027 C 
ATOM     18  C   LIG    1        2.567   2.212  -2.969  0.00  0.00    -0.028 C 
ENDBRANCH  13  14
ENDBRANCH   6  13
ENDBRANCH   3   6
ENDBRANCH   1   2
BRANCH   1  19
ATOM     19  N   LIG    1       -0.617  -0.827  -1.111  0.00  0.00    -0.300 N 
ATOM     20  H   LIG    1       -0.814  -1.812  -0.997  0.00  0.00    +0.150 HD
ATOM     21  C   LIG    1       -0.840  -0.252  -2.306  0.00  0.00    +0.234 C 
ATOM     22  O   LIG    1       -0.639   0.940  -2.543  0.00  0.00    -0.274 OA
BRANCH  21  23
ATOM     23  C   LIG    1       -1.392  -1.177  -3.409  0.00  0.00    +0.156 C 
ATOM     24  C   LIG    1       -1.579  -0.451  -4.754  0.00  0.00    +0.038 C 
BRANCH  23  25
ATOM     25  N   LIG    1       -2.674  -1.767  -3.017  0.00  0.00    -0.303 N 
ATOM     26  H   LIG    1       -3.494  -1.242  -3.283  0.00  0.00    +0.149 HD
ATOM     27  C   LIG    1       -2.828  -2.902  -2.312  0.00  0.00    +0.228 C 
ATOM     28  O   LIG    1       -1.874  -3.600  -1.958  0.00  0.00    -0.274 OA
BRANCH  27  29
ATOM     29  C   LIG    1       -4.288  -3.283  -1.978  0.00  0.00    +0.180 C 
BRANCH  29  30
ATOM     30  N   LIG    1       -4.373  -4.320  -0.935  0.00  0.00    -0.290 NA
ATOM     31  C   LIG    1       -4.052  -3.805   0.408  0.00  0.00    +0.113 C 
ATOM     32  C   LIG    1       -4.217  -4.895   1.488  0.00  0.00    +0.175 C 
ATOM     33  O   LIG    1       -5.529  -5.442   1.432  0.00  0.00    -0.377 OA
ATOM     34  C   LIG    1       -5.818  -6.027   0.167  0.00  0.00    +0.175 C 
ATOM     35  C   LIG    1       -5.693  -4.966  -0.947  0.00  0.00    +0.113 C 
ENDBRANCH  29  30
ENDBRANCH  27  29
ENDBRANCH  23  25
ENDBRANCH  21  23
ENDBRANCH   1  19
BRANCH   1  36
ATOM     36  C   LIG    1       -0.328  -0.952   1.386  0.00  0.00    +0.174 C 
BRANCH  36  40
ATOM     37  C   LIG    1        1.314   1.127   4.818  0.00  0.00    +0.120 A 
ATOM     38  C   LIG    1        0.123   1.575   4.226  0.00  0.00    +0.046 A 
ATOM     39  C   LIG    1       -0.418   0.899   3.136  0.00  0.00    +0.010 A 
ATOM     40  C   LIG    1        0.224  -0.232   2.623  0.00  0.00    -0.017 A 
ATOM     41  C   LIG    1        1.405  -0.684   3.216  0.00  0.00    +0.010 A 
ATOM     42  C   LIG    1        1.944  -0.008   4.305  0.00  0.00    +0.046 A 
BRANCH  37  44
ATOM     43  C   LIG    1        1.357   2.923   6.438  0.00  0.00    +0.277 C 
ATOM     44  O   LIG    1        1.930   1.740   5.892  0.00  0.00    -0.495 OA
ENDBRANCH  37  44
ENDBRANCH  36  40
BRANCH  36  45
ATOM     45  O   LIG    1       -1.715  -1.223   1.507  0.00  0.00    -0.385 OA
ATOM     46  H   LIG    1       -2.189  -0.389   1.502  0.00  0.00    +0.210 HD
ENDBRANCH  36  45
ENDBRANCH   1  36
TORSDOF 15
