REMARK  Name = DB16183
REMARK                            x       y       z     vdW  Elec       q    Type
REMARK                         _______ _______ _______ _____ _____    ______ ____
ROOT
ATOM      1  C   LIG    1        1.583  -0.228  -0.307  0.00  0.00    +0.009 A 
ATOM      2  C   LIG    1        2.373  -1.105   0.424  0.00  0.00    +0.048 A 
ATOM      3  N   LIG    1        3.659  -0.715   0.349  0.00  0.00    -0.354 N 
ATOM      4  H   LIG    1        4.441  -1.168   0.795  0.00  0.00    +0.166 HD
ATOM      5  C   LIG    1        3.721   0.379  -0.430  0.00  0.00    +0.045 A 
ATOM      6  C   LIG    1        4.890   1.080  -0.742  0.00  0.00    +0.052 C 
ATOM      7  C   LIG    1        6.201   0.814  -0.335  0.00  0.00    +0.048 A 
ATOM      8  N   LIG    1        6.559  -0.221   0.452  0.00  0.00    -0.354 N 
ATOM      9  H   LIG    1        5.938  -0.910   0.845  0.00  0.00    +0.166 HD
ATOM     10  C   LIG    1        7.895  -0.173   0.616  0.00  0.00    +0.045 A 
ATOM     11  C   LIG    1        8.645  -1.076   1.376  0.00  0.00    +0.051 C 
ATOM     12  C   LIG    1        8.193  -2.186   2.093  0.00  0.00    +0.045 A 
ATOM     13  C   LIG    1        8.984  -3.044   2.837  0.00  0.00    -0.022 A 
ATOM     14  C   LIG    1       10.490  -2.948   3.037  0.00  0.00    +0.046 C 
ATOM     15  C   LIG    1        8.144  -4.008   3.360  0.00  0.00    -0.019 A 
ATOM     16  C   LIG    1        6.864  -3.694   2.936  0.00  0.00    +0.045 A 
ATOM     17  C   LIG    1        5.695  -4.396   3.244  0.00  0.00    +0.051 C 
ATOM     18  C   LIG    1        4.388  -4.118   2.831  0.00  0.00    +0.045 A 
ATOM     19  C   LIG    1        3.263  -4.862   3.149  0.00  0.00    -0.019 A 
ATOM     20  C   LIG    1        2.189  -4.229   2.559  0.00  0.00    -0.022 A 
ATOM     21  C   LIG    1        0.730  -4.658   2.635  0.00  0.00    +0.046 C 
ATOM     22  C   LIG    1        2.692  -3.132   1.881  0.00  0.00    +0.045 A 
ATOM     23  N   LIG    1        4.027  -3.075   2.055  0.00  0.00    -0.355 N 
ATOM     24  H   LIG    1        4.646  -2.376   1.678  0.00  0.00    +0.166 HD
ATOM     25  N   LIG    1        6.912  -2.590   2.167  0.00  0.00    -0.355 N 
ATOM     26  H   LIG    1        6.125  -2.144   1.723  0.00  0.00    +0.166 HD
ATOM     27  C   LIG    1        8.404   0.906  -0.086  0.00  0.00    -0.020 A 
ATOM     28  C   LIG    1        9.872   1.301  -0.188  0.00  0.00    +0.046 C 
ATOM     29  C   LIG    1        7.328   1.553  -0.669  0.00  0.00    +0.009 A 
ATOM     30  C   LIG    1        1.933  -2.227   1.133  0.00  0.00    +0.052 C 
ATOM     31  C   LIG    1        2.447   0.695  -0.871  0.00  0.00    -0.020 A 
ATOM     32  C   LIG    1        2.084   1.848  -1.798  0.00  0.00    +0.046 C 
ENDROOT
BRANCH   1  34
ATOM     33  C   LIG    1       -0.349  -0.972  -1.783  0.00  0.00    +0.043 C 
ATOM     34  C   LIG    1        0.060  -0.289  -0.468  0.00  0.00    +0.144 C 
BRANCH  34  35
ATOM     35  O   LIG    1       -0.558   0.980  -0.393  0.00  0.00    -0.387 OA
ATOM     36  H   LIG    1       -0.562   1.269   0.523  0.00  0.00    +0.210 HD
ENDBRANCH  34  35
ENDBRANCH   1  34
BRANCH  29  37
ATOM     37  C   LIG    1        7.365   2.820  -1.531  0.00  0.00    +0.144 C 
ATOM     38  C   LIG    1        7.703   2.504  -2.997  0.00  0.00    +0.043 C 
BRANCH  37  39
ATOM     39  O   LIG    1        8.267   3.798  -1.049  0.00  0.00    -0.387 OA
ATOM     40  H   LIG    1        7.902   4.188  -0.251  0.00  0.00    +0.210 HD
ENDBRANCH  37  39
ENDBRANCH  29  37
BRANCH  15  41
ATOM     41  C   LIG    1        8.570  -5.176   4.240  0.00  0.00    +0.048 C 
BRANCH  41  42
ATOM     42  C   LIG    1        8.579  -4.800   5.744  0.00  0.00    +0.125 C 
BRANCH  42  43
ATOM     43  C   LIG    1        9.142  -5.889   6.689  0.00  0.00    +0.305 C 
ATOM     44  O   LIG    1        9.337  -5.538   7.875  0.00  0.00    -0.251 OA
BRANCH  43  45
ATOM     45  O   LIG    1        9.366  -7.042   6.254  0.00  0.00    -0.481 OA
ATOM     46  H   LIG    1        9.706  -7.701   6.826  0.00  0.00    +0.295 HD
ENDBRANCH  43  45
ENDBRANCH  42  43
ENDBRANCH  41  42
ENDBRANCH  15  41
BRANCH  19  47
ATOM     47  C   LIG    1        3.195  -6.133   3.988  0.00  0.00    +0.048 C 
BRANCH  47  48
ATOM     48  C   LIG    1        2.929  -5.835   5.486  0.00  0.00    +0.125 C 
BRANCH  48  49
ATOM     49  C   LIG    1        2.709  -7.085   6.371  0.00  0.00    +0.305 C 
ATOM     50  O   LIG    1        2.219  -6.879   7.504  0.00  0.00    -0.251 OA
BRANCH  49  51
ATOM     51  O   LIG    1        3.035  -8.218   5.945  0.00  0.00    -0.481 OA
ATOM     52  H   LIG    1        2.903  -8.976   6.480  0.00  0.00    +0.295 HD
ENDBRANCH  49  51
ENDBRANCH  48  49
ENDBRANCH  47  48
ENDBRANCH  19  47
TORSDOF 12
