REMARK  Name = DB16835
REMARK                            x       y       z     vdW  Elec       q    Type
REMARK                         _______ _______ _______ _____ _____    ______ ____
ROOT
ATOM      1  C   LIG    1        5.458   2.458   1.049  0.00  0.00    +0.047 C 
ATOM      2  C   LIG    1        5.221   0.932   1.051  0.00  0.00    +0.096 C 
ATOM      3  O   LIG    1        6.303   0.288   0.358  0.00  0.00    -0.363 OA
ATOM      4  C   LIG    1        6.230  -0.029  -1.041  0.00  0.00    +0.069 C 
ATOM      5  C   LIG    1        4.993  -0.940  -1.287  0.00  0.00    +0.071 C 
ATOM      6  C   LIG    1        3.740  -0.335  -0.649  0.00  0.00    -0.018 A 
ATOM      7  C   LIG    1        2.388  -0.502  -1.073  0.00  0.00    +0.069 A 
ATOM      8  C   LIG    1        1.495   0.254  -0.274  0.00  0.00    +0.085 A 
ATOM      9  S   LIG    1        2.345   1.192   0.923  0.00  0.00    -0.075 S 
ATOM     10  C   LIG    1        6.154   1.242  -1.920  0.00  0.00    +0.041 C 
ATOM     11  C   LIG    1        7.509  -0.845  -1.309  0.00  0.00    +0.041 C 
ATOM     12  C   LIG    1        3.880   0.562   0.411  0.00  0.00    +0.027 A 
ATOM     13  C   LIG    1        5.291   0.326   2.466  0.00  0.00    +0.047 C 
ENDROOT
BRANCH   7  14
ATOM     14  C   LIG    1        2.001  -1.408  -2.152  0.00  0.00    +0.244 C 
ATOM     15  O   LIG    1        2.671  -2.393  -2.457  0.00  0.00    -0.270 OA
ATOM     16  N   LIG    1        0.873  -1.108  -2.807  0.00  0.00    -0.325 N 
ATOM     17  H   LIG    1        0.359  -0.268  -2.585  0.00  0.00    +0.145 HD
ATOM     18  H   LIG    1        0.553  -1.702  -3.558  0.00  0.00    +0.145 HD
ENDBRANCH   7  14
BRANCH   8  19
ATOM     19  N   LIG    1        0.098   0.265  -0.358  0.00  0.00    -0.274 N 
ATOM     20  H   LIG    1       -0.292  -0.371  -1.038  0.00  0.00    +0.156 HD
ATOM     21  C   LIG    1       -0.795   1.008   0.342  0.00  0.00    +0.269 C 
ATOM     22  O   LIG    1       -0.506   1.834   1.212  0.00  0.00    -0.268 OA
BRANCH  21  23
ATOM     23  C   LIG    1       -2.180   0.765  -0.013  0.00  0.00    +0.147 A 
ATOM     24  N   LIG    1       -2.604  -0.077  -0.944  0.00  0.00    -0.169 NA
ATOM     25  N   LIG    1       -3.938   0.016  -0.940  0.00  0.00    -0.284 N 
ATOM     26  H   LIG    1       -4.515  -0.530  -1.563  0.00  0.00    +0.188 HD
ATOM     27  C   LIG    1       -4.412   0.909  -0.022  0.00  0.00    +0.105 A 
ATOM     28  C   LIG    1       -3.280   1.409   0.591  0.00  0.00    +0.054 A 
ENDBRANCH  21  23
ENDBRANCH   8  19
TORSDOF 3
