REMARK  Name = DB16833
REMARK                            x       y       z     vdW  Elec       q    Type
REMARK                         _______ _______ _______ _____ _____    ______ ____
ROOT
ATOM      1  C   LIG    1       -2.010   1.006  -0.273  0.00  0.00    +0.253 C 
ATOM      2  C   LIG    1       -1.724  -0.192  -1.193  0.00  0.00    +0.195 C 
ATOM      3  C   LIG    1       -0.209  -0.051  -1.349  0.00  0.00    +0.178 C 
ATOM      4  C   LIG    1        0.233   0.483   0.011  0.00  0.00    +0.178 C 
ATOM      5  O   LIG    1       -0.811   1.392   0.332  0.00  0.00    -0.346 OA
ENDROOT
BRANCH   1   6
ATOM      6  N   LIG    1       -2.693   2.206  -0.901  0.00  0.00    -0.286 N 
ATOM      7  C   LIG    1       -2.516   2.722  -2.136  0.00  0.00    +0.203 A 
ATOM      8  N   LIG    1       -3.265   3.767  -2.387  0.00  0.00    -0.231 NA
ATOM      9  C   LIG    1       -3.969   3.947  -1.259  0.00  0.00    +0.147 A 
ATOM     10  C   LIG    1       -4.944   4.910  -0.906  0.00  0.00    +0.147 A 
ATOM     11  N   LIG    1       -5.499   4.841   0.335  0.00  0.00    -0.219 NA
ATOM     12  C   LIG    1       -5.087   3.861   1.153  0.00  0.00    +0.225 A 
ATOM     13  N   LIG    1       -4.178   2.899   0.934  0.00  0.00    -0.216 NA
ATOM     14  C   LIG    1       -3.643   2.993  -0.309  0.00  0.00    +0.167 A 
BRANCH  10  15
ATOM     15  N   LIG    1       -5.362   5.922  -1.768  0.00  0.00    -0.341 N 
ATOM     16  H   LIG    1       -6.063   6.578  -1.457  0.00  0.00    +0.144 HD
ATOM     17  H   LIG    1       -4.964   5.979  -2.694  0.00  0.00    +0.144 HD
ENDBRANCH  10  15
ENDBRANCH   1   6
BRANCH   2  18
ATOM     18  O   LIG    1       -2.153  -1.392  -0.568  0.00  0.00    -0.385 OA
ATOM     19  H   LIG    1       -1.954  -2.129  -1.151  0.00  0.00    +0.210 HD
ENDBRANCH   2  18
BRANCH   3  20
ATOM     20  O   LIG    1        0.457  -1.242  -1.729  0.00  0.00    -0.386 OA
ATOM     21  H   LIG    1        0.458  -1.845  -0.978  0.00  0.00    +0.210 HD
ENDBRANCH   3  20
BRANCH   4  22
ATOM     22  C   LIG    1        1.590   1.206   0.027  0.00  0.00    +0.206 C 
BRANCH  22  23
ATOM     23  O   LIG    1        2.008   1.364   1.374  0.00  0.00    -0.284 OA
BRANCH  23  24
ATOM     24  P   LIG    1        3.453   0.551   1.867  0.00  0.00    +0.483 P 
ATOM     25  O   LIG    1        4.566   0.964   0.927  0.00  0.00    -0.227 OA
BRANCH  24  26
ATOM     26  O   LIG    1        3.567   0.676   3.370  0.00  0.00    -0.302 OA
ATOM     27  H   LIG    1        2.749   0.358   3.784  0.00  0.00    +0.222 HD
ENDBRANCH  24  26
BRANCH  24  28
ATOM     28  O   LIG    1        2.998  -1.056   1.475  0.00  0.00    -0.186 OA
BRANCH  28  29
ATOM     29  P   LIG    1        1.938  -2.309   2.080  0.00  0.00    +0.481 P 
ATOM     30  O   LIG    1        0.972  -1.621   3.062  0.00  0.00    -0.227 OA
BRANCH  29  31
ATOM     31  O   LIG    1        1.221  -2.874   0.838  0.00  0.00    -0.302 OA
ATOM     32  H   LIG    1        1.871  -3.295   0.253  0.00  0.00    +0.222 HD
ENDBRANCH  29  31
BRANCH  29  33
ATOM     33  O   LIG    1        2.854  -3.343   2.761  0.00  0.00    -0.302 OA
ATOM     34  H   LIG    1        3.279  -2.939   3.534  0.00  0.00    +0.222 HD
ENDBRANCH  29  33
ENDBRANCH  28  29
ENDBRANCH  24  28
ENDBRANCH  23  24
ENDBRANCH  22  23
ENDBRANCH   4  22
TORSDOF 12
