REMARK  Name = DB16943
REMARK                            x       y       z     vdW  Elec       q    Type
REMARK                         _______ _______ _______ _____ _____    ______ ____
ROOT
ATOM      1  C   LIG    1        1.440   0.005   0.019  0.00  0.00    +0.043 A 
ATOM      2  C   LIG    1        2.164  -0.657  -0.975  0.00  0.00    +0.128 A 
ATOM      3  N   LIG    1        3.520  -0.676  -1.006  0.00  0.00    -0.254 NA
ATOM      4  C   LIG    1        4.214  -0.019  -0.032  0.00  0.00    +0.071 A 
ATOM      5  C   LIG    1        3.546   0.657   1.001  0.00  0.00    +0.029 A 
ATOM      6  C   LIG    1        2.150   0.669   1.023  0.00  0.00    +0.020 A 
ENDROOT
BRANCH   4   7
ATOM      7  C   LIG    1        5.710  -0.080  -0.118  0.00  0.00    +0.004 A 
ATOM      8  C   LIG    1        6.507   0.914   0.473  0.00  0.00    +0.048 A 
ATOM      9  C   LIG    1        7.898   0.868   0.397  0.00  0.00    +0.125 A 
ATOM     10  F   LIG    1        8.639   1.840   0.975  0.00  0.00    -0.205 F 
ATOM     11  C   LIG    1        8.526  -0.178  -0.275  0.00  0.00    +0.057 A 
ATOM     12  C   LIG    1        7.760  -1.180  -0.873  0.00  0.00    +0.055 A 
ATOM     13  C   LIG    1        6.365  -1.126  -0.793  0.00  0.00    +0.029 A 
BRANCH  12  14
ATOM     14  C   LIG    1        8.412  -2.276  -1.575  0.00  0.00    +0.099 C 
ATOM     15  N   LIG    1        8.930  -3.147  -2.133  0.00  0.00    -0.191 NA
ENDBRANCH  12  14
ENDBRANCH   4   7
BRANCH   1  17
ATOM     16  C   LIG    1       -1.236   0.016   0.015  0.00  0.00    -0.041 C 
ATOM     17  C   LIG    1       -0.015   0.004   0.011  0.00  0.00    -0.058 C 
BRANCH  16  22
ATOM     18  C   LIG    1       -5.599  -1.560  -1.417  0.00  0.00    +0.073 C 
ATOM     19  C   LIG    1       -4.638  -0.692  -0.637  0.00  0.00    +0.077 A 
ATOM     20  S   LIG    1       -5.152   0.544   0.472  0.00  0.00    -0.080 S 
ATOM     21  C   LIG    1       -3.484   0.899   0.795  0.00  0.00    +0.083 A 
ATOM     22  C   LIG    1       -2.689   0.049   0.036  0.00  0.00    +0.121 A 
ATOM     23  N   LIG    1       -3.334  -0.806  -0.735  0.00  0.00    -0.236 NA
ENDBRANCH  16  22
ENDBRANCH   1  17
TORSDOF 4
