REMARK  Name = DB16026
REMARK                            x       y       z     vdW  Elec       q    Type
REMARK                         _______ _______ _______ _____ _____    ______ ____
ROOT
ATOM      1  C   LIG    1       -2.592   1.398   1.244  0.00  0.00    +0.015 C 
ENDROOT
BRANCH   1   2
ATOM      2  C   LIG    1       -4.145   1.368   1.149  0.00  0.00    -0.010 C 
ATOM      3  C   LIG    1       -4.654  -0.089   1.060  0.00  0.00    +0.008 C 
BRANCH   2   4
ATOM      4  C   LIG    1       -4.816   2.186   2.309  0.00  0.00    -0.002 C 
ATOM      5  C   LIG    1       -6.380   2.302   2.346  0.00  0.00    -0.026 C 
ATOM      6  C   LIG    1       -6.940   2.620   0.922  0.00  0.00    +0.012 C 
ATOM      7  C   LIG    1       -7.119   1.099   2.994  0.00  0.00    +0.007 C 
ATOM      8  C   LIG    1       -8.620   1.394   3.210  0.00  0.00    +0.005 C 
ATOM      9  C   LIG    1       -8.865   2.676   4.064  0.00  0.00    +0.001 C 
ATOM     10  C   LIG    1      -10.390   3.022   4.275  0.00  0.00    -0.026 C 
ATOM     11  C   LIG    1      -11.073   3.450   2.940  0.00  0.00    +0.012 C 
ATOM     12  C   LIG    1      -11.241   1.835   4.825  0.00  0.00    +0.010 C 
ATOM     13  C   LIG    1      -10.794   1.338   6.211  0.00  0.00    +0.032 C 
ATOM     14  C   LIG    1      -10.846   2.479   7.246  0.00  0.00    +0.115 C 
ATOM     15  C   LIG    1      -10.117   3.750   6.759  0.00  0.00    +0.035 C 
ATOM     16  C   LIG    1      -10.502   4.192   5.315  0.00  0.00    +0.000 C 
ATOM     17  C   LIG    1       -9.687   5.431   4.860  0.00  0.00    +0.035 C 
ATOM     18  C   LIG    1       -8.207   5.113   4.537  0.00  0.00    +0.118 C 
ATOM     19  C   LIG    1       -8.037   3.912   3.551  0.00  0.00    +0.025 C 
ATOM     20  C   LIG    1       -6.546   3.478   3.349  0.00  0.00    +0.001 C 
ATOM     21  C   LIG    1       -5.500   4.507   2.912  0.00  0.00    +0.005 C 
ATOM     22  C   LIG    1       -4.342   3.664   2.362  0.00  0.00    +0.004 C 
BRANCH  14  23
ATOM     23  O   LIG    1      -10.332   2.049   8.489  0.00  0.00    -0.392 OA
ATOM     24  H   LIG    1       -9.408   1.814   8.371  0.00  0.00    +0.210 HD
ENDBRANCH  14  23
BRANCH  18  25
ATOM     25  O   LIG    1       -7.573   6.296   4.091  0.00  0.00    -0.391 OA
ATOM     26  H   LIG    1       -7.844   6.463   3.186  0.00  0.00    +0.210 HD
ENDBRANCH  18  25
ENDBRANCH   2   4
ENDBRANCH   1   2
BRANCH   1  27
ATOM     27  C   LIG    1       -1.868   0.862  -0.012  0.00  0.00    +0.121 C 
BRANCH  27  28
ATOM     28  C   LIG    1       -0.356   1.090   0.022  0.00  0.00    +0.312 C 
ATOM     29  O   LIG    1        0.118   2.225  -0.073  0.00  0.00    -0.250 OA
BRANCH  28  30
ATOM     30  O   LIG    1        0.340  -0.075   0.151  0.00  0.00    -0.422 OA
BRANCH  30  31
ATOM     31  C   LIG    1        1.721  -0.068   0.166  0.00  0.00    +0.173 A 
ATOM     32  C   LIG    1        2.466   0.512   1.210  0.00  0.00    +0.163 A 
ATOM     33  C   LIG    1        3.871   0.475   1.138  0.00  0.00    +0.057 A 
ATOM     34  C   LIG    1        4.535  -0.133   0.066  0.00  0.00    -0.021 A 
ATOM     35  C   LIG    1        3.770  -0.719  -0.949  0.00  0.00    +0.012 A 
ATOM     36  C   LIG    1        2.380  -0.690  -0.895  0.00  0.00    +0.051 A 
BRANCH  32  37
ATOM     37  O   LIG    1        1.766   1.082   2.259  0.00  0.00    -0.491 OA
ATOM     38  C   LIG    1        2.477   1.727   3.310  0.00  0.00    +0.277 C 
ENDBRANCH  32  37
BRANCH  34  39
ATOM     39  C   LIG    1        6.015  -0.133   0.050  0.00  0.00    +0.015 C 
ATOM     40  C   LIG    1        6.808  -0.660  -0.909  0.00  0.00    +0.092 C 
BRANCH  40  41
ATOM     41  C   LIG    1        8.264  -0.617  -0.843  0.00  0.00    +0.332 C 
ATOM     42  O   LIG    1        8.895  -0.085   0.076  0.00  0.00    -0.246 OA
BRANCH  41  43
ATOM     43  O   LIG    1        8.829  -1.226  -1.908  0.00  0.00    -0.462 OA
BRANCH  43  44
ATOM     44  C   LIG    1       10.244  -1.304  -2.043  0.00  0.00    +0.232 C 
BRANCH  44  45
ATOM     45  C   LIG    1       10.619  -2.026  -3.347  0.00  0.00    +0.044 C 
BRANCH  45  46
ATOM     46  C   LIG    1       10.182  -1.272  -4.618  0.00  0.00    +0.047 C 
BRANCH  46  47
ATOM     47  C   LIG    1       10.593  -1.977  -5.919  0.00  0.00    +0.267 C 
BRANCH  47  48
ATOM     48  O   LIG    1        9.950  -3.255  -5.991  0.00  0.00    -0.354 OA
BRANCH  48  49
ATOM     49  N   LIG    1       10.261  -4.014  -7.165  0.00  0.00    +0.171 N 
ATOM     50  O   LIG    1        9.700  -5.082  -7.182  0.00  0.00    -0.094 OA
BRANCH  49  51
ATOM     51  O   LIG    1       11.017  -3.522  -7.974  0.00  0.00    -0.370 OA
ATOM     52  H   LIG    1       11.378  -2.671  -7.820  0.00  0.00    +0.332 HD
ENDBRANCH  49  51
ENDBRANCH  48  49
ENDBRANCH  47  48
ENDBRANCH  46  47
ENDBRANCH  45  46
ENDBRANCH  44  45
ENDBRANCH  43  44
ENDBRANCH  41  43
ENDBRANCH  40  41
ENDBRANCH  34  39
ENDBRANCH  30  31
ENDBRANCH  28  30
ENDBRANCH  27  28
ENDBRANCH   1  27
TORSDOF 19
