REMARK  Name = DB16233
REMARK                            x       y       z     vdW  Elec       q    Type
REMARK                         _______ _______ _______ _____ _____    ______ ____
ROOT
ATOM      1  C   LIG    1       -0.105   3.447  -4.937  0.00  0.00    +0.017 C 
ATOM      2  C   LIG    1       -1.163   3.638  -3.823  0.00  0.00    +0.072 C 
ATOM      3  C   LIG    1       -2.343   2.632  -3.867  0.00  0.00    +0.220 C 
ATOM      4  O   LIG    1       -3.366   2.896  -3.228  0.00  0.00    -0.275 OA
ATOM      5  N   LIG    1       -2.185   1.493  -4.576  0.00  0.00    -0.282 N 
ATOM      6  H   LIG    1       -1.296   1.311  -5.018  0.00  0.00    +0.155 HD
ATOM      7  C   LIG    1       -3.116   0.471  -4.569  0.00  0.00    +0.079 A 
ATOM      8  C   LIG    1       -4.294   0.384  -5.318  0.00  0.00    +0.158 A 
ATOM      9  N   LIG    1       -4.938  -0.737  -5.104  0.00  0.00    -0.173 NA
ATOM     10  N   LIG    1       -4.189  -1.406  -4.210  0.00  0.00    -0.202 N 
ATOM     11  C   LIG    1       -3.042  -0.723  -3.853  0.00  0.00    +0.096 A 
ATOM     12  C   LIG    1       -1.995  -1.182  -2.894  0.00  0.00    +0.005 A 
ATOM     13  C   LIG    1       -1.385  -2.439  -2.968  0.00  0.00    +0.030 A 
ATOM     14  C   LIG    1       -0.335  -2.723  -2.094  0.00  0.00    +0.112 A 
ATOM     15  N   LIG    1        0.144  -1.823  -1.197  0.00  0.00    -0.258 NA
ATOM     16  C   LIG    1       -0.446  -0.595  -1.129  0.00  0.00    +0.065 A 
ATOM     17  C   LIG    1        0.192   0.455  -0.186  0.00  0.00    +0.140 C 
ATOM     18  C   LIG    1       -0.134   1.948  -0.526  0.00  0.00    +0.031 C 
ATOM     19  C   LIG    1        0.259   2.458  -1.938  0.00  0.00    +0.003 C 
ATOM     20  C   LIG    1       -1.544  -0.274  -1.934  0.00  0.00    +0.035 A 
ATOM     21  C   LIG    1       -0.520   3.718  -2.406  0.00  0.00    +0.012 C 
ENDROOT
BRANCH  17  22
ATOM     22  N   LIG    1        1.629   0.217   0.149  0.00  0.00    -0.290 N 
ATOM     23  C   LIG    1        1.928  -0.140   1.453  0.00  0.00    +0.255 A 
ATOM     24  O   LIG    1        1.117  -0.289   2.369  0.00  0.00    -0.268 OA
ATOM     25  C   LIG    1        3.349  -0.352   1.689  0.00  0.00    +0.098 A 
ATOM     26  C   LIG    1        4.241  -0.239   0.670  0.00  0.00    +0.080 A 
ATOM     27  N   LIG    1        3.861   0.153  -0.587  0.00  0.00    -0.237 NA
ATOM     28  C   LIG    1        2.609   0.350  -0.825  0.00  0.00    +0.203 A 
BRANCH  26  29
ATOM     29  C   LIG    1        5.702  -0.433   0.861  0.00  0.00    +0.027 A 
ATOM     30  C   LIG    1        6.490  -1.279   0.043  0.00  0.00    +0.076 A 
ATOM     31  C   LIG    1        7.873  -1.364   0.248  0.00  0.00    +0.030 A 
ATOM     32  C   LIG    1        8.480  -0.645   1.274  0.00  0.00    +0.022 A 
ATOM     33  C   LIG    1        7.711   0.165   2.104  0.00  0.00    +0.042 A 
ATOM     34 CL   LIG    1        8.460   1.049   3.383  0.00  0.00    -0.084 Cl
ATOM     35  C   LIG    1        6.336   0.267   1.898  0.00  0.00    +0.032 A 
BRANCH  30  36
ATOM     36  N   LIG    1        5.931  -2.073  -0.983  0.00  0.00    -0.218 N 
ATOM     37  N   LIG    1        4.902  -2.902  -0.753  0.00  0.00    -0.059 NA
ATOM     38  N   LIG    1        4.612  -3.530  -1.951  0.00  0.00    -0.118 NA
ATOM     39  C   LIG    1        5.464  -3.099  -2.862  0.00  0.00    +0.171 A 
ATOM     40 CL   LIG    1        5.432  -3.646  -4.489  0.00  0.00    -0.058 Cl
ATOM     41  C   LIG    1        6.332  -2.180  -2.293  0.00  0.00    +0.156 A 
ENDBRANCH  30  36
ENDBRANCH  26  29
ENDBRANCH  17  22
BRANCH  10  42
ATOM     42  C   LIG    1       -4.664  -2.702  -3.726  0.00  0.00    +0.464 C 
ATOM     43  F   LIG    1       -5.897  -2.542  -3.242  0.00  0.00    -0.183 F 
ATOM     44  F   LIG    1       -4.657  -3.553  -4.754  0.00  0.00    -0.183 F 
ENDBRANCH  10  42
TORSDOF 4
