REMARK  Name = DB16323
REMARK                            x       y       z     vdW  Elec       q    Type
REMARK                         _______ _______ _______ _____ _____    ______ ____
ROOT
ATOM      1  C   LIG    1        2.202  -5.158  -2.518  0.00  0.00    +0.187 C 
ATOM      2  C   LIG    1        2.046  -5.863  -1.148  0.00  0.00    +0.237 C 
ATOM      3  O   LIG    1        3.058  -6.062  -0.479  0.00  0.00    -0.274 OA
ATOM      4  N   LIG    1        0.835  -6.271  -0.703  0.00  0.00    -0.302 N 
ATOM      5  H   LIG    1        0.842  -6.778   0.171  0.00  0.00    +0.150 HD
ATOM      6  C   LIG    1       -0.536  -5.978  -1.169  0.00  0.00    +0.169 C 
ATOM      7  C   LIG    1       -0.851  -4.474  -0.977  0.00  0.00    +0.112 C 
ATOM      8  S   LIG    1       -0.885  -3.895   0.740  0.00  0.00    -0.091 S 
ATOM      9  S   LIG    1       -1.146  -1.884   0.532  0.00  0.00    -0.091 S 
ATOM     10  C   LIG    1        0.547  -1.257   0.368  0.00  0.00    +0.112 C 
ATOM     11  C   LIG    1        0.761   0.012  -0.481  0.00  0.00    +0.169 C 
ATOM     12  C   LIG    1       -0.035   1.236   0.039  0.00  0.00    +0.235 C 
ATOM     13  O   LIG    1        0.425   1.848   1.003  0.00  0.00    -0.274 OA
ATOM     14  N   LIG    1       -1.196   1.632  -0.526  0.00  0.00    -0.302 N 
ATOM     15  H   LIG    1       -1.605   2.464  -0.126  0.00  0.00    +0.150 HD
ATOM     16  C   LIG    1       -2.031   1.059  -1.593  0.00  0.00    +0.163 C 
ATOM     17  C   LIG    1       -1.334   0.864  -2.955  0.00  0.00    +0.234 C 
ATOM     18  O   LIG    1       -0.379   1.572  -3.275  0.00  0.00    -0.274 OA
ATOM     19  N   LIG    1       -1.845  -0.118  -3.715  0.00  0.00    -0.302 N 
ATOM     20  H   LIG    1       -2.650  -0.626  -3.379  0.00  0.00    +0.150 HD
ATOM     21  C   LIG    1       -1.207  -0.680  -4.905  0.00  0.00    +0.163 C 
ATOM     22  C   LIG    1       -0.345  -1.871  -4.447  0.00  0.00    +0.234 C 
ATOM     23  O   LIG    1       -0.826  -2.708  -3.683  0.00  0.00    -0.274 OA
ATOM     24  N   LIG    1        0.893  -1.940  -4.962  0.00  0.00    -0.302 N 
ATOM     25  H   LIG    1        1.215  -1.222  -5.594  0.00  0.00    +0.150 HD
ATOM     26  C   LIG    1        1.858  -2.985  -4.625  0.00  0.00    +0.159 C 
ATOM     27  C   LIG    1        2.460  -2.747  -3.223  0.00  0.00    +0.234 C 
ATOM     28  O   LIG    1        2.833  -1.611  -2.945  0.00  0.00    -0.274 OA
ATOM     29  N   LIG    1        2.592  -3.760  -2.345  0.00  0.00    -0.300 N 
ATOM     30  H   LIG    1        2.995  -3.551  -1.443  0.00  0.00    +0.150 HD
ENDROOT
BRANCH  11  31
ATOM     31  N   LIG    1        2.204   0.270  -0.494  0.00  0.00    -0.302 N 
ATOM     32  H   LIG    1        2.754  -0.338   0.095  0.00  0.00    +0.150 HD
ATOM     33  C   LIG    1        2.846   1.213  -1.209  0.00  0.00    +0.234 C 
ATOM     34  O   LIG    1        2.288   2.011  -1.961  0.00  0.00    -0.274 OA
BRANCH  33  35
ATOM     35  C   LIG    1        4.380   1.231  -1.061  0.00  0.00    +0.163 C 
BRANCH  35  36
ATOM     36  N   LIG    1        4.896  -0.103  -1.382  0.00  0.00    -0.305 N 
ATOM     37  H   LIG    1        4.772  -0.383  -2.345  0.00  0.00    +0.149 HD
ATOM     38  C   LIG    1        5.468  -0.967  -0.526  0.00  0.00    +0.197 C 
ATOM     39  O   LIG    1        5.653  -0.731   0.667  0.00  0.00    -0.278 OA
BRANCH  38  40
ATOM     40  C   LIG    1        5.879  -2.325  -1.120  0.00  0.00    +0.019 C 
BRANCH  40  41
ATOM     41  N   LIG    1        7.344  -2.401  -1.511  0.00  0.00    +0.387 N 
ATOM     42  H   LIG    1        7.361  -2.887  -2.398  0.00  0.00    -0.081 HD
ATOM     43  C   LIG    1        8.097  -1.083  -1.859  0.00  0.00    -0.063 C 
ATOM     44  C   LIG    1        9.246  -1.341  -2.865  0.00  0.00    +0.066 C 
ATOM     45  N   LIG    1        8.809  -1.990  -4.114  0.00  0.00    -0.296 NA
ATOM     46  C   LIG    1        9.950  -2.575  -4.835  0.00  0.00    +0.066 C 
ATOM     47  C   LIG    1        9.533  -3.636  -5.889  0.00  0.00    -0.062 C 
ATOM     48  N   LIG    1        8.492  -4.640  -5.319  0.00  0.00    +0.388 N 
ATOM     49  H   LIG    1        8.063  -4.111  -4.572  0.00  0.00    -0.081 HD
ATOM     50  C   LIG    1        9.077  -5.891  -4.609  0.00  0.00    -0.062 C 
ATOM     51  C   LIG    1        8.545  -6.007  -3.159  0.00  0.00    +0.066 C 
ATOM     52  N   LIG    1        8.967  -4.904  -2.280  0.00  0.00    -0.296 NA
ATOM     53  C   LIG    1        8.141  -4.764  -1.067  0.00  0.00    +0.066 C 
ATOM     54  C   LIG    1        8.135  -3.312  -0.534  0.00  0.00    -0.063 C 
BRANCH  52  55
ATOM     55  C   LIG    1       10.431  -4.842  -2.026  0.00  0.00    +0.205 C 
BRANCH  55  56
ATOM     56  C   LIG    1       11.107  -5.971  -1.194  0.00  0.00    +0.319 C 
ATOM     57  O   LIG    1       12.330  -5.812  -0.983  0.00  0.00    -0.250 OA
BRANCH  56  58
ATOM     58  O   LIG    1       10.459  -6.961  -0.781  0.00  0.00    -0.480 OA
ATOM     59  H   LIG    1       10.889  -7.628  -0.283  0.00  0.00    +0.295 HD
ENDBRANCH  56  58
ENDBRANCH  55  56
ENDBRANCH  52  55
BRANCH  48  60
ATOM     60  C   LIG    1        7.293  -4.952  -6.266  0.00  0.00    +0.044 C 
BRANCH  60  61
ATOM     61  C   LIG    1        7.684  -5.669  -7.585  0.00  0.00    +0.288 C 
ATOM     62  O   LIG    1        6.728  -5.924  -8.350  0.00  0.00    -0.253 OA
BRANCH  61  63
ATOM     63  O   LIG    1        8.876  -5.953  -7.843  0.00  0.00    -0.482 OA
ATOM     64  H   LIG    1        9.091  -6.386  -8.646  0.00  0.00    +0.295 HD
ENDBRANCH  61  63
ENDBRANCH  60  61
ENDBRANCH  48  60
BRANCH  45  65
ATOM     65  C   LIG    1        8.042  -1.060  -4.978  0.00  0.00    +0.205 C 
BRANCH  65  66
ATOM     66  C   LIG    1        6.506  -1.185  -4.838  0.00  0.00    +0.319 C 
ATOM     67  O   LIG    1        5.839  -0.153  -5.060  0.00  0.00    -0.250 OA
BRANCH  66  68
ATOM     68  O   LIG    1        6.002  -2.298  -4.563  0.00  0.00    -0.480 OA
ATOM     69  H   LIG    1        5.073  -2.382  -4.476  0.00  0.00    +0.295 HD
ENDBRANCH  66  68
ENDBRANCH  65  66
ENDBRANCH  45  65
ENDBRANCH  40  41
ENDBRANCH  38  40
ENDBRANCH  35  36
BRANCH  35  70
ATOM     70  C   LIG    1        5.045   2.333  -1.936  0.00  0.00    +0.067 C 
BRANCH  70  71
ATOM     71  C   LIG    1        6.573   2.355  -1.858  0.00  0.00    -0.045 A 
ATOM     72  C   LIG    1        7.320   2.433  -3.038  0.00  0.00    +0.005 A 
ATOM     73  C   LIG    1        8.710   2.426  -2.988  0.00  0.00    +0.020 A 
ATOM     74  C   LIG    1        9.357   2.351  -1.756  0.00  0.00    +0.041 A 
ATOM     75 CL   LIG    1       11.081   2.316  -1.695  0.00  0.00    -0.084 Cl
ATOM     76  C   LIG    1        8.621   2.296  -0.573  0.00  0.00    +0.020 A 
ATOM     77  C   LIG    1        7.230   2.302  -0.624  0.00  0.00    +0.005 A 
ENDBRANCH  70  71
ENDBRANCH  35  70
ENDBRANCH  33  35
ENDBRANCH  11  31
BRANCH   6  78
ATOM     78  C   LIG    1       -0.929  -6.499  -2.574  0.00  0.00    +0.235 C 
ATOM     79  N   LIG    1       -0.131  -7.428  -3.134  0.00  0.00    -0.302 N 
ATOM     80  H   LIG    1        0.652  -7.761  -2.591  0.00  0.00    +0.150 HD
ATOM     81  O   LIG    1       -1.928  -6.032  -3.120  0.00  0.00    -0.274 OA
BRANCH  79  82
ATOM     82  C   LIG    1       -0.185  -7.963  -4.503  0.00  0.00    +0.163 C 
BRANCH  82  83
ATOM     83  C   LIG    1       -1.370  -8.928  -4.725  0.00  0.00    +0.231 C 
ATOM     84  O   LIG    1       -2.530  -8.541  -4.593  0.00  0.00    -0.274 OA
ATOM     85  N   LIG    1       -1.069 -10.174  -5.103  0.00  0.00    -0.328 N 
ATOM     86  H   LIG    1       -1.806 -10.841  -5.275  0.00  0.00    +0.145 HD
ATOM     87  H   LIG    1       -0.106 -10.455  -5.222  0.00  0.00    +0.145 HD
ENDBRANCH  82  83
BRANCH  82  88
ATOM     88  C   LIG    1       -0.145  -6.812  -5.543  0.00  0.00    +0.067 C 
BRANCH  88  89
ATOM     89  C   LIG    1        0.153  -7.219  -6.976  0.00  0.00    -0.045 A 
ATOM     90  C   LIG    1       -0.892  -7.610  -7.839  0.00  0.00    +0.007 A 
ATOM     91  C   LIG    1       -0.618  -7.939  -9.180  0.00  0.00    +0.045 A 
ATOM     92  C   LIG    1        0.703  -7.877  -9.665  0.00  0.00    +0.117 A 
ATOM     93  C   LIG    1        1.751  -7.496  -8.804  0.00  0.00    +0.045 A 
ATOM     94  C   LIG    1        1.477  -7.174  -7.460  0.00  0.00    +0.007 A 
BRANCH  92  95
ATOM     95  O   LIG    1        0.966  -8.183 -10.968  0.00  0.00    -0.507 OA
ATOM     96  H   LIG    1        0.186  -8.463 -11.452  0.00  0.00    +0.292 HD
ENDBRANCH  92  95
ENDBRANCH  88  89
ENDBRANCH  82  88
ENDBRANCH  79  82
ENDBRANCH   6  78
BRANCH   1  97
ATOM     97  C   LIG    1        3.174  -5.947  -3.460  0.00  0.00    +0.141 C 
ATOM     98  C   LIG    1        4.675  -5.736  -3.186  0.00  0.00    +0.040 C 
BRANCH  97  99
ATOM     99  O   LIG    1        2.958  -7.346  -3.414  0.00  0.00    -0.390 OA
ATOM    100  H   LIG    1        3.298  -7.679  -2.580  0.00  0.00    +0.210 HD
ENDBRANCH  97  99
ENDBRANCH   1  97
BRANCH  16 101
ATOM    101  C   LIG    1       -3.353   1.863  -1.753  0.00  0.00    +0.067 C 
BRANCH 101 102
ATOM    102  C   LIG    1       -3.147   3.303  -2.229  0.00  0.00    -0.045 A 
ATOM    103  C   LIG    1       -3.251   3.608  -3.587  0.00  0.00    +0.005 A 
ATOM    104  C   LIG    1       -3.021   4.907  -4.032  0.00  0.00    +0.023 A 
ATOM    105  C   LIG    1       -2.680   5.913  -3.114  0.00  0.00    +0.033 A 
ATOM    106  C   LIG    1       -2.611   5.609  -1.753  0.00  0.00    +0.023 A 
ATOM    107  C   LIG    1       -2.842   4.309  -1.311  0.00  0.00    +0.005 A 
BRANCH 105 108
ATOM    108  N   LIG    1       -2.412   7.250  -3.461  0.00  0.00    -0.284 N 
ATOM    109  H   LIG    1       -2.402   7.888  -2.679  0.00  0.00    +0.155 HD
ATOM    110  C   LIG    1       -2.092   7.776  -4.666  0.00  0.00    +0.238 C 
ATOM    111  O   LIG    1       -1.979   7.117  -5.701  0.00  0.00    -0.273 OA
BRANCH 110 112
ATOM    112  C   LIG    1       -1.856   9.311  -4.691  0.00  0.00    +0.169 C 
ATOM    113  N   LIG    1       -0.811   9.684  -3.715  0.00  0.00    -0.287 N 
ATOM    114  H   LIG    1       -1.046   9.642  -2.733  0.00  0.00    +0.151 HD
ATOM    115  C   LIG    1        0.504   9.786  -4.028  0.00  0.00    +0.306 C 
ATOM    116  O   LIG    1        1.381   9.814  -3.168  0.00  0.00    -0.252 OA
ATOM    117  N   LIG    1        0.788   9.801  -5.354  0.00  0.00    -0.240 N 
ATOM    118  H   LIG    1        1.776   9.805  -5.564  0.00  0.00    +0.159 HD
ATOM    119  C   LIG    1       -0.008   9.817  -6.447  0.00  0.00    +0.223 C 
ATOM    120  O   LIG    1        0.435   9.824  -7.593  0.00  0.00    -0.275 OA
ATOM    121  C   LIG    1       -1.514   9.880  -6.109  0.00  0.00    +0.128 C 
ENDBRANCH 110 112
ENDBRANCH 105 108
ENDBRANCH 101 102
ENDBRANCH  16 101
BRANCH  21 122
ATOM    122  C   LIG    1       -2.265  -1.087  -5.968  0.00  0.00    +0.067 C 
BRANCH 122 123
ATOM    123  C   LIG    1       -1.679  -1.859  -7.150  0.00  0.00    -0.045 A 
ATOM    124  C   LIG    1       -0.909  -1.200  -8.110  0.00  0.00    +0.005 A 
ATOM    125  C   LIG    1       -0.318  -1.921  -9.145  0.00  0.00    +0.023 A 
ATOM    126  C   LIG    1       -0.493  -3.312  -9.220  0.00  0.00    +0.035 A 
ATOM    127  C   LIG    1       -1.299  -3.957  -8.280  0.00  0.00    +0.023 A 
ATOM    128  C   LIG    1       -1.884  -3.237  -7.245  0.00  0.00    +0.005 A 
BRANCH 126 129
ATOM    129  N   LIG    1        0.086  -4.135 -10.203  0.00  0.00    -0.270 N 
ATOM    130  H   LIG    1       -0.319  -5.058 -10.270  0.00  0.00    +0.156 HD
ATOM    131  C   LIG    1        1.153  -3.887 -10.986  0.00  0.00    +0.301 C 
ATOM    132  O   LIG    1        1.851  -2.874 -10.969  0.00  0.00    -0.253 OA
ATOM    133  N   LIG    1        1.402  -4.902 -11.813  0.00  0.00    -0.313 N 
ATOM    134  H   LIG    1        2.166  -4.843 -12.471  0.00  0.00    +0.146 HD
ATOM    135  H   LIG    1        0.849  -5.745 -11.771  0.00  0.00    +0.146 HD
ENDBRANCH 126 129
ENDBRANCH 122 123
ENDBRANCH  21 122
BRANCH  26 136
ATOM    136  C   LIG    1        2.959  -3.024  -5.700  0.00  0.00    +0.032 C 
BRANCH 136 137
ATOM    137  C   LIG    1        2.460  -3.535  -7.060  0.00  0.00    +0.000 C 
BRANCH 137 138
ATOM    138  C   LIG    1        3.590  -3.893  -8.036  0.00  0.00    -0.019 C 
BRANCH 138 139
ATOM    139  C   LIG    1        4.428  -2.680  -8.474  0.00  0.00    -0.086 C 
BRANCH 139 140
ATOM    140  N   LIG    1        5.408  -3.044  -9.510  0.00  0.00    +0.378 N 
ATOM    141  H   LIG    1        6.023  -3.763  -9.155  0.00  0.00    -0.090 HD
ATOM    142  H   LIG    1        4.922  -3.394 -10.323  0.00  0.00    -0.090 HD
ATOM    143  H   LIG    1        5.950  -2.231  -9.765  0.00  0.00    -0.090 HD
ENDBRANCH 139 140
ENDBRANCH 138 139
ENDBRANCH 137 138
ENDBRANCH 136 137
ENDBRANCH  26 136
TORSDOF 36
