REMARK  Name = DB16855
REMARK                            x       y       z     vdW  Elec       q    Type
REMARK                         _______ _______ _______ _____ _____    ______ ____
ROOT
ATOM      1  C   LIG    1       -0.028   0.001   0.002  0.00  0.00    -0.045 A 
ATOM      2  C   LIG    1       -0.725   1.212  -0.002  0.00  0.00    +0.007 A 
ATOM      3  C   LIG    1       -2.118   1.213  -0.012  0.00  0.00    +0.045 A 
ATOM      4  C   LIG    1       -2.810   0.003  -0.018  0.00  0.00    +0.117 A 
ATOM      5  C   LIG    1       -2.119  -1.208  -0.014  0.00  0.00    +0.045 A 
ATOM      6  C   LIG    1       -0.727  -1.210  -0.003  0.00  0.00    +0.007 A 
ENDROOT
BRANCH   4   7
ATOM      7  O   LIG    1       -4.180   0.002  -0.027  0.00  0.00    -0.507 OA
ATOM      8  H   LIG    1       -4.554   0.886  -0.026  0.00  0.00    +0.292 HD
ENDBRANCH   4   7
BRANCH   1   9
ATOM      9  C   LIG    1        1.494   0.000   0.017  0.00  0.00    +0.063 C 
BRANCH   9  10
ATOM     10  C   LIG    1        2.069   0.000   1.443  0.00  0.00    +0.160 C 
BRANCH  10  11
ATOM     11  O   LIG    1        3.480   0.000   1.408  0.00  0.00    -0.395 OA
ATOM     12  H   LIG    1        3.808  -0.001   2.311  0.00  0.00    +0.209 HD
ENDBRANCH  10  11
ENDBRANCH   9  10
ENDBRANCH   1   9
TORSDOF 4
