REMARK  Name = DB16868
REMARK                            x       y       z     vdW  Elec       q    Type
REMARK                         _______ _______ _______ _____ _____    ______ ____
ROOT
ATOM      1  S   LIG    1       -2.089   1.374  -0.604  0.00  0.00    +0.210 S 
ATOM      2  O   LIG    1       -2.653   2.595  -0.019  0.00  0.00    -0.115 OA
ATOM      3  O   LIG    1       -1.932   1.414  -2.062  0.00  0.00    -0.115 OA
ATOM      4  O   LIG    1       -0.545   1.208   0.053  0.00  0.00    -0.336 OA
ATOM      5  C   LIG    1       -0.016  -0.033   0.028  0.00  0.00    +0.137 C 
ATOM      6  C   LIG    1       -0.785  -1.134   0.073  0.00  0.00    +0.112 C 
ATOM      7  C   LIG    1       -2.229  -1.068   0.131  0.00  0.00    +0.261 C 
ATOM      8  O   LIG    1       -2.776  -2.123   0.444  0.00  0.00    -0.269 OA
ATOM      9  C   LIG    1        1.497   0.019  -0.010  0.00  0.00    +0.089 C 
ATOM     10  N   LIG    1       -2.849   0.068  -0.115  0.00  0.00    -0.153 N 
ATOM     11  H   LIG    1       -3.825   0.109   0.009  0.00  0.00    +0.180 HD
ENDROOT
TORSDOF 0
