REMARK  Name = DB16866
REMARK                            x       y       z     vdW  Elec       q    Type
REMARK                         _______ _______ _______ _____ _____    ______ ____
ROOT
ATOM      1  C   LIG    1       -2.849   0.008   0.000  0.00  0.00    +0.035 A 
ATOM      2  N   LIG    1       -4.258  -0.002   0.000  0.00  0.00    -0.335 N 
ATOM      3  H   LIG    1       -4.783   0.861   0.000  0.00  0.00    +0.147 HD
ATOM      4  C   LIG    1       -5.076  -1.231   0.000  0.00  0.00    +0.045 C 
ATOM      5  C   LIG    1       -4.186  -2.480   0.000  0.00  0.00    +0.002 C 
ATOM      6  C   LIG    1       -2.841  -2.484   0.000  0.00  0.00    -0.043 C 
ATOM      7  C   LIG    1       -2.103  -3.821   0.000  0.00  0.00    +0.044 C 
ATOM      8  C   LIG    1       -5.902  -1.220  -1.301  0.00  0.00    +0.036 C 
ATOM      9  C   LIG    1       -5.902  -1.220   1.301  0.00  0.00    +0.036 C 
ATOM     10  C   LIG    1       -2.203   1.244   0.000  0.00  0.00    +0.027 A 
ATOM     11  C   LIG    1       -0.814   1.311   0.000  0.00  0.00    +0.047 A 
ATOM     12  C   LIG    1       -0.049   0.136   0.000  0.00  0.00    +0.121 A 
ATOM     13  C   LIG    1       -0.707  -1.096   0.000  0.00  0.00    +0.055 A 
ATOM     14  C   LIG    1       -2.110  -1.190   0.000  0.00  0.00    +0.002 A 
ENDROOT
BRANCH  12  15
ATOM     15  O   LIG    1        1.333   0.103   0.000  0.00  0.00    -0.492 OA
BRANCH  15  16
ATOM     16  C   LIG    1        2.060   1.328   0.000  0.00  0.00    +0.225 C 
ATOM     17  C   LIG    1        3.559   1.012   0.000  0.00  0.00    +0.048 C 
ENDBRANCH  15  16
ENDBRANCH  12  15
TORSDOF 2
