REMARK  Name = DB16145
REMARK                            x       y       z     vdW  Elec       q    Type
REMARK                         _______ _______ _______ _____ _____    ______ ____
ROOT
ATOM      1  C   LIG    1        1.385  -0.006   0.120  0.00  0.00    +0.252 C 
ATOM      2  N   LIG    1        1.934   0.005   1.379  0.00  0.00    -0.245 N 
ATOM      3  C   LIG    1        1.269   0.008   2.644  0.00  0.00    +0.063 A 
ATOM      4  C   LIG    1       -0.105  -0.007   2.965  0.00  0.00    +0.025 A 
ATOM      5  C   LIG    1       -0.548  -0.000   4.289  0.00  0.00    +0.002 A 
ATOM      6  C   LIG    1        0.368   0.020   5.336  0.00  0.00    +0.002 A 
ATOM      7  C   LIG    1        1.734   0.035   5.069  0.00  0.00    +0.029 A 
ATOM      8  C   LIG    1        2.146   0.028   3.738  0.00  0.00    +0.111 A 
ATOM      9  S   LIG    1        3.846   0.045   3.227  0.00  0.00    +0.015 S 
ATOM     10  O   LIG    1        4.474   1.330   3.552  0.00  0.00    -0.168 OA
ATOM     11  O   LIG    1        4.513  -1.207   3.597  0.00  0.00    -0.168 OA
ATOM     12  C   LIG    1        3.411   0.005   1.411  0.00  0.00    +0.286 C 
ATOM     13  O   LIG    1        2.062  -0.018  -0.913  0.00  0.00    -0.270 OA
ENDROOT
BRANCH   1  18
ATOM     14  C   LIG    1       -2.890  -0.000  -0.441  0.00  0.00    +0.153 A 
ATOM     15  C   LIG    1       -2.180   1.217  -0.343  0.00  0.00    +0.084 A 
ATOM     16 CL   LIG    1       -2.947   2.777  -0.427  0.00  0.00    -0.080 Cl
ATOM     17  C   LIG    1       -0.796   1.204  -0.166  0.00  0.00    +0.036 A 
ATOM     18  C   LIG    1       -0.102  -0.003  -0.070  0.00  0.00    +0.040 A 
ATOM     19  C   LIG    1       -0.795  -1.208  -0.187  0.00  0.00    +0.036 A 
ATOM     20  C   LIG    1       -2.180  -1.219  -0.364  0.00  0.00    +0.084 A 
ATOM     21 CL   LIG    1       -2.946  -2.777  -0.473  0.00  0.00    -0.080 Cl
BRANCH  14  22
ATOM     22  O   LIG    1       -4.160   0.001  -0.594  0.00  0.00    -0.504 OA
ATOM     23  H   LIG    1       -4.624  -0.810  -0.658  0.00  0.00    +0.292 HD
ENDBRANCH  14  22
ENDBRANCH   1  18
TORSDOF 2
