REMARK  Name = DB16939
REMARK                            x       y       z     vdW  Elec       q    Type
REMARK                         _______ _______ _______ _____ _____    ______ ____
ROOT
ATOM      1  C   LIG    1        3.471   0.851   1.369  0.00  0.00    -0.008 A 
ATOM      2  S   LIG    1        4.531   1.133   0.009  0.00  0.00    -0.101 S 
ATOM      3  C   LIG    1        5.665   1.991   0.992  0.00  0.00    +0.058 A 
ATOM      4  C   LIG    1        5.248   2.109   2.316  0.00  0.00    +0.044 A 
ATOM      5  C   LIG    1        4.029   1.434   2.508  0.00  0.00    +0.024 A 
ENDROOT
BRANCH   4   6
ATOM      6  C   LIG    1        5.992   2.736   3.386  0.00  0.00    +0.245 C 
ATOM      7  O   LIG    1        5.747   2.487   4.569  0.00  0.00    -0.270 OA
ATOM      8  N   LIG    1        6.935   3.613   2.987  0.00  0.00    -0.308 N 
ATOM      9  H   LIG    1        7.123   3.695   1.999  0.00  0.00    +0.149 HD
BRANCH   8  10
ATOM     10  C   LIG    1        7.822   4.375   3.869  0.00  0.00    +0.078 C 
ATOM     11  C   LIG    1        8.866   3.538   4.650  0.00  0.00    +0.050 C 
ATOM     12  C   LIG    1        9.845   4.415   5.455  0.00  0.00    +0.161 C 
ATOM     13  O   LIG    1       10.422   5.410   4.616  0.00  0.00    -0.380 OA
ATOM     14  C   LIG    1        9.466   6.333   4.103  0.00  0.00    +0.161 C 
ATOM     15  C   LIG    1        8.461   5.605   3.189  0.00  0.00    +0.050 C 
ENDBRANCH   8  10
ENDBRANCH   4   6
BRANCH   1  18
ATOM     16  C   LIG    1        1.396  -0.060  -0.038  0.00  0.00    -0.063 C 
ATOM     17  C   LIG    1        2.175  -1.230   0.519  0.00  0.00    -0.008 C 
ATOM     18  C   LIG    1        2.158   0.092   1.262  0.00  0.00    +0.010 C 
BRANCH  16  19
ATOM     19  N   LIG    1       -0.137  -0.079   0.005  0.00  0.00    +0.382 N 
ATOM     20  H   LIG    1       -0.483  -0.659  -0.746  0.00  0.00    -0.085 HD
ATOM     21  H   LIG    1       -0.435  -0.492   0.877  0.00  0.00    -0.085 HD
BRANCH  19  22
ATOM     22  C   LIG    1       -0.753   1.323  -0.118  0.00  0.00    -0.079 C 
BRANCH  22  23
ATOM     23  C   LIG    1       -2.281   1.210  -0.015  0.00  0.00    -0.028 C 
ATOM     24  C   LIG    1       -2.942   1.088   1.337  0.00  0.00    +0.002 C 
ATOM     25  C   LIG    1       -3.075   2.369   0.534  0.00  0.00    +0.002 C 
ENDBRANCH  22  23
ENDBRANCH  19  22
ENDBRANCH  16  19
ENDBRANCH   1  18
TORSDOF 6
