REMARK  Name = DB16447
REMARK                            x       y       z     vdW  Elec       q    Type
REMARK                         _______ _______ _______ _____ _____    ______ ____
ROOT
ATOM      1  C   LIG    1        1.528  -0.071   0.000  0.00  0.00    +0.005 C 
ATOM      2  C   LIG    1        2.203   1.257   0.000  0.00  0.00    +0.183 C 
ATOM      3  O   LIG    1        1.641   2.352   0.000  0.00  0.00    -0.288 OA
ATOM      4  C   LIG    1        3.668   1.142   0.000  0.00  0.00    +0.058 C 
ATOM      5  C   LIG    1        4.364  -0.023   0.000  0.00  0.00    -0.000 C 
ATOM      6  C   LIG    1        5.890  -0.034   0.000  0.00  0.00    +0.048 C 
ATOM      7  C   LIG    1        3.697  -1.350   0.000  0.00  0.00    +0.182 C 
ATOM      8  O   LIG    1        4.268  -2.441   0.000  0.00  0.00    -0.288 OA
ATOM      9  C   LIG    1        2.232  -1.235   0.000  0.00  0.00    +0.058 C 
ENDROOT
BRANCH   1  11
ATOM     10  C   LIG    1       -0.606  -0.692   1.272  0.00  0.00    +0.012 C 
ATOM     11  C   LIG    1       -0.012  -0.055   0.000  0.00  0.00    +0.017 C 
ATOM     12  C   LIG    1       -0.606  -0.692  -1.272  0.00  0.00    +0.012 C 
ENDBRANCH   1  11
TORSDOF 1
