REMARK  Name = DB16319
REMARK                            x       y       z     vdW  Elec       q    Type
REMARK                         _______ _______ _______ _____ _____    ______ ____
ROOT
ATOM      1  C   LIG    1        2.392   0.923   0.878  0.00  0.00    +0.109 A 
ATOM      2  C   LIG    1        2.516  -0.008   1.909  0.00  0.00    +0.032 A 
ATOM      3  C   LIG    1        2.661   0.424   3.226  0.00  0.00    +0.048 A 
ATOM      4  C   LIG    1        2.677   1.795   3.535  0.00  0.00    +0.126 A 
ATOM      5  C   LIG    1        2.537   2.727   2.492  0.00  0.00    +0.021 A 
ATOM      6  C   LIG    1        2.398   2.286   1.172  0.00  0.00    +0.038 A 
ENDROOT
BRANCH   1   7
ATOM      7  S   LIG    1        2.169   0.370  -0.812  0.00  0.00    +0.075 S 
ATOM      8  O   LIG    1        2.670   1.429  -1.696  0.00  0.00    -0.150 OA
ATOM      9  O   LIG    1        2.698  -0.996  -0.907  0.00  0.00    -0.150 OA
BRANCH   7  10
ATOM     10  N   LIG    1        0.399   0.273  -1.035  0.00  0.00    -0.203 N 
BRANCH  10  14
ATOM     11  C   LIG    1       -1.554  -2.905   0.901  0.00  0.00    -0.048 A 
ATOM     12  C   LIG    1       -1.488  -1.660   1.529  0.00  0.00    +0.005 A 
ATOM     13  C   LIG    1       -0.849  -0.596   0.899  0.00  0.00    +0.025 A 
ATOM     14  C   LIG    1       -0.270  -0.771  -0.365  0.00  0.00    +0.051 A 
ATOM     15  C   LIG    1       -0.332  -2.022  -0.985  0.00  0.00    +0.025 A 
ATOM     16  C   LIG    1       -0.974  -3.085  -0.356  0.00  0.00    +0.005 A 
BRANCH  11  18
ATOM     17  C   LIG    1       -1.277  -4.958   2.378  0.00  0.00    +0.009 C 
ATOM     18  C   LIG    1       -2.250  -4.070   1.589  0.00  0.00    +0.032 C 
ENDBRANCH  11  18
ENDBRANCH  10  14
BRANCH  10  19
ATOM     19  C   LIG    1       -0.283   1.575  -1.058  0.00  0.00    +0.134 C 
BRANCH  19  20
ATOM     20  C   LIG    1       -1.684   1.576  -1.719  0.00  0.00    +0.002 C 
ATOM     21  C   LIG    1       -2.313   2.979  -1.652  0.00  0.00    +0.009 C 
ATOM     22  C   LIG    1       -1.655   1.054  -3.169  0.00  0.00    +0.009 C 
ENDBRANCH  19  20
ENDBRANCH  10  19
ENDBRANCH   7  10
ENDBRANCH   1   7
BRANCH   4  23
ATOM     23  O   LIG    1        2.825   2.291   4.819  0.00  0.00    -0.491 OA
BRANCH  23  24
ATOM     24  C   LIG    1        2.974   1.391   5.914  0.00  0.00    +0.232 C 
BRANCH  24  25
ATOM     25  C   LIG    1        3.144   2.197   7.217  0.00  0.00    +0.031 C 
ATOM     26  C   LIG    1        1.937   3.111   7.524  0.00  0.00    +0.035 C 
ATOM     27  C   LIG    1        2.145   3.868   8.852  0.00  0.00    +0.160 C 
ATOM     28  O   LIG    1        2.380   2.936   9.909  0.00  0.00    -0.380 OA
ATOM     29  C   LIG    1        3.542   2.124   9.726  0.00  0.00    +0.160 C 
ATOM     30  C   LIG    1        3.398   1.288   8.438  0.00  0.00    +0.035 C 
ENDBRANCH  24  25
ENDBRANCH  23  24
ENDBRANCH   4  23
BRANCH   5  31
ATOM     31  C   LIG    1        2.535   4.223   2.779  0.00  0.00    +0.194 C 
BRANCH  31  32
ATOM     32  O   LIG    1        3.823   4.724   3.064  0.00  0.00    -0.390 OA
ATOM     33  H   LIG    1        4.177   4.239   3.813  0.00  0.00    +0.210 HD
ENDBRANCH  31  32
ENDBRANCH   5  31
TORSDOF 11
