REMARK  Name = DB16884
REMARK                            x       y       z     vdW  Elec       q    Type
REMARK                         _______ _______ _______ _____ _____    ______ ____
ROOT
ATOM      1  C   LIG    1        0.025   0.008   0.000  0.00  0.00    +0.062 A 
ATOM      2  C   LIG    1       -0.714  -1.194   0.000  0.00  0.00    +0.034 A 
ATOM      3  C   LIG    1       -2.109  -1.150   0.000  0.00  0.00    +0.111 A 
ATOM      4  N   LIG    1       -2.812   0.009   0.000  0.00  0.00    -0.263 NA
ATOM      5  C   LIG    1       -2.109   1.167   0.000  0.00  0.00    +0.111 A 
ATOM      6  C   LIG    1       -0.714   1.210   0.000  0.00  0.00    +0.034 A 
ENDROOT
BRANCH   1   7
ATOM      7  C   LIG    1        1.540   0.008   0.000  0.00  0.00    +0.337 C 
ATOM      8  O   LIG    1        2.143  -1.092   0.000  0.00  0.00    -0.245 OA
BRANCH   7   9
ATOM      9  O   LIG    1        2.143   1.108   0.000  0.00  0.00    -0.477 OA
ATOM     10  H   LIG    1        3.080   1.128   0.000  0.00  0.00    +0.295 HD
ENDBRANCH   7   9
ENDBRANCH   1   7
TORSDOF 2
