REMARK  Name = DB16061
REMARK                            x       y       z     vdW  Elec       q    Type
REMARK                         _______ _______ _______ _____ _____    ______ ____
ROOT
ATOM      1  C   LIG    1       -3.074   2.282  -0.044  0.00  0.00    +0.019 A 
ATOM      2  C   LIG    1       -4.269   1.551   0.004  0.00  0.00    +0.141 A 
ATOM      3  N   LIG    1       -4.124   0.265   0.244  0.00  0.00    -0.171 NA
ATOM      4  N   LIG    1       -2.788   0.082   0.371  0.00  0.00    -0.200 N 
ATOM      5  C   LIG    1       -2.139  -1.105   0.630  0.00  0.00    +0.126 A 
ATOM      6  C   LIG    1       -0.743  -1.054   0.719  0.00  0.00    +0.087 A 
ATOM      7  C   LIG    1       -0.092   0.168   0.544  0.00  0.00    +0.124 A 
ATOM      8  N   LIG    1       -0.755   1.333   0.290  0.00  0.00    -0.213 NA
ATOM      9  C   LIG    1       -2.090   1.288   0.204  0.00  0.00    +0.163 A 
ENDROOT
BRANCH   1  11
ATOM     10  C   LIG    1       -2.501   4.488   1.028  0.00  0.00    +0.012 C 
ATOM     11  C   LIG    1       -2.844   3.766  -0.287  0.00  0.00    +0.018 C 
ATOM     12  C   LIG    1       -4.026   4.442  -1.006  0.00  0.00    +0.012 C 
ENDBRANCH   1  11
BRANCH   5  13
ATOM     13  N   LIG    1       -2.875  -2.293   0.790  0.00  0.00    -0.325 N 
ATOM     14  H   LIG    1       -3.882  -2.265   0.713  0.00  0.00    +0.148 HD
BRANCH  13  15
ATOM     15  C   LIG    1       -2.232  -3.573   1.058  0.00  0.00    +0.138 C 
BRANCH  15  16
ATOM     16  C   LIG    1       -3.275  -4.670   1.180  0.00  0.00    -0.030 A 
ATOM     17  C   LIG    1       -3.794  -5.001   2.434  0.00  0.00    +0.005 A 
ATOM     18  C   LIG    1       -4.764  -5.994   2.544  0.00  0.00    +0.000 A 
ATOM     19  C   LIG    1       -5.215  -6.648   1.400  0.00  0.00    +0.000 A 
ATOM     20  C   LIG    1       -4.707  -6.316   0.145  0.00  0.00    +0.000 A 
ATOM     21  C   LIG    1       -3.738  -5.323   0.034  0.00  0.00    +0.005 A 
ENDBRANCH  15  16
ENDBRANCH  13  15
ENDBRANCH   5  13
BRANCH   7  22
ATOM     22  N   LIG    1        1.308   0.179   0.638  0.00  0.00    -0.329 N 
ATOM     23  H   LIG    1        1.796  -0.698   0.746  0.00  0.00    +0.147 HD
BRANCH  22  24
ATOM     24  C   LIG    1        2.087   1.390   0.397  0.00  0.00    +0.108 C 
BRANCH  24  25
ATOM     25  C   LIG    1        3.612   1.207   0.581  0.00  0.00    +0.031 C 
ATOM     26  C   LIG    1        4.086   1.151   2.061  0.00  0.00    +0.102 C 
ATOM     27  C   LIG    1        5.591   0.805   2.115  0.00  0.00    -0.051 C 
ATOM     28  N   LIG    1        6.383   1.930   1.415  0.00  0.00    +0.381 N 
ATOM     29  H   LIG    1        6.256   2.791   1.928  0.00  0.00    -0.086 HD
ATOM     30  H   LIG    1        7.370   1.714   1.435  0.00  0.00    -0.086 HD
ATOM     31  C   LIG    1        5.929   2.136  -0.047  0.00  0.00    -0.082 C 
ATOM     32  C   LIG    1        4.399   2.355  -0.098  0.00  0.00    -0.012 C 
BRANCH  26  33
ATOM     33  O   LIG    1        3.351   0.253   2.869  0.00  0.00    -0.393 OA
ATOM     34  H   LIG    1        3.472  -0.637   2.532  0.00  0.00    +0.210 HD
ENDBRANCH  26  33
ENDBRANCH  24  25
ENDBRANCH  22  24
ENDBRANCH   7  22
TORSDOF 8
