REMARK  Name = DB16324
REMARK                            x       y       z     vdW  Elec       q    Type
REMARK                         _______ _______ _______ _____ _____    ______ ____
ROOT
ATOM      1  C   LIG    1        3.544   0.813  -1.377  0.00  0.00    +0.130 C 
ATOM      2  C   LIG    1        3.911   1.497  -2.582  0.00  0.00    +0.098 C 
ATOM      3  N   LIG    1        2.977   1.987  -3.454  0.00  0.00    -0.297 NA
ATOM      4  H   LIG    1        2.399   2.649  -2.935  0.00  0.00    +0.123 HD
ATOM      5  C   LIG    1        3.407   2.623  -4.575  0.00  0.00    +0.115 C 
ATOM      6  C   LIG    1        4.752   2.807  -4.893  0.00  0.00    +0.169 C 
ATOM      7  C   LIG    1        5.729   2.320  -4.028  0.00  0.00    +0.063 C 
ATOM      8  F   LIG    1        5.104   3.451  -6.029  0.00  0.00    -0.236 F 
ATOM      9  C   LIG    1        5.306   1.656  -2.856  0.00  0.00    +0.072 C 
ATOM     10  N   LIG    1        6.197   1.142  -1.940  0.00  0.00    -0.273 NA
ATOM     11  H   LIG    1        7.189   1.234  -2.101  0.00  0.00    +0.126 HD
ATOM     12  C   LIG    1        5.783   0.514  -0.829  0.00  0.00    +0.172 C 
ATOM     13  N   LIG    1        4.482   0.332  -0.513  0.00  0.00    -0.261 NA
ATOM     14  H   LIG    1        4.328  -0.672  -0.426  0.00  0.00    +0.127 HD
ENDROOT
BRANCH  12  15
ATOM     15  N   LIG    1        6.712  -0.000   0.092  0.00  0.00    -0.297 NA
ATOM     16  H   LIG    1        7.703   0.098  -0.074  0.00  0.00    +0.121 HD
ATOM     17  H   LIG    1        6.385  -0.470   0.924  0.00  0.00    +0.121 HD
ENDBRANCH  12  15
BRANCH   1  18
ATOM     18  N   LIG    1        2.178   0.630  -1.072  0.00  0.00    -0.287 NA
ATOM     19  H   LIG    1        1.513   0.978  -1.747  0.00  0.00    +0.124 HD
BRANCH  18  20
ATOM     20  C   LIG    1        1.604  -0.073   0.089  0.00  0.00    +0.041 C 
ATOM     21  C   LIG    1        2.060   0.528   1.446  0.00  0.00    +0.030 C 
BRANCH  20  22
ATOM     22  C   LIG    1        0.051   0.065  -0.031  0.00  0.00    +0.024 C 
BRANCH  22  23
ATOM     23  C   LIG    1       -0.524   1.501   0.034  0.00  0.00    +0.002 C 
BRANCH  23  25
ATOM     24  C   LIG    1       -2.625   2.963  -0.113  0.00  0.00    +0.004 C 
ATOM     25  C   LIG    1       -2.051   1.540  -0.160  0.00  0.00    -0.003 C 
ENDBRANCH  23  25
ENDBRANCH  22  23
ENDBRANCH  20  22
BRANCH  20  26
ATOM     26  C   LIG    1        1.940  -1.599   0.069  0.00  0.00    +0.177 C 
BRANCH  26  27
ATOM     27  O   LIG    1        1.555  -2.256  -1.126  0.00  0.00    -0.393 OA
ATOM     28  H   LIG    1        1.838  -3.172  -1.077  0.00  0.00    +0.209 HD
ENDBRANCH  26  27
ENDBRANCH  20  26
ENDBRANCH  18  20
ENDBRANCH   1  18
TORSDOF 8
