REMARK  Name = DB16060
REMARK                            x       y       z     vdW  Elec       q    Type
REMARK                         _______ _______ _______ _____ _____    ______ ____
ROOT
ATOM      1  C   LIG    1        5.242   0.254  -0.065  0.00  0.00    -0.022 C 
ATOM      2  C   LIG    1        5.841   1.530  -0.647  0.00  0.00    +0.056 C 
ATOM      3  C   LIG    1        7.374   1.373  -0.780  0.00  0.00    +0.114 C 
ATOM      4  N   LIG    1        7.913   0.981   0.541  0.00  0.00    -0.281 N 
ATOM      5  C   LIG    1        8.264   1.963   1.424  0.00  0.00    +0.308 C 
ATOM      6  N   LIG    1        8.842   1.513   2.565  0.00  0.00    -0.254 N 
ATOM      7  H   LIG    1        8.907   0.511   2.669  0.00  0.00    +0.158 HD
ATOM      8  O   LIG    1        8.156   3.163   1.157  0.00  0.00    -0.252 OA
ATOM      9  C   LIG    1        7.483  -0.371   0.998  0.00  0.00    +0.137 C 
ATOM     10  C   LIG    1        5.984  -0.547   0.729  0.00  0.00    -0.002 C 
ENDROOT
BRANCH   1  15
ATOM     11  C   LIG    1        1.078  -0.401  -0.458  0.00  0.00    +0.003 A 
ATOM     12  C   LIG    1        1.528   0.313   0.659  0.00  0.00    +0.030 A 
ATOM     13  C   LIG    1        2.893   0.552   0.834  0.00  0.00    +0.067 A 
ATOM     14 CL   LIG    1        3.436   1.439   2.217  0.00  0.00    -0.081 Cl
ATOM     15  C   LIG    1        3.784   0.060  -0.131  0.00  0.00    +0.085 A 
ATOM     16  N   LIG    1        3.369  -0.627  -1.226  0.00  0.00    -0.253 NA
ATOM     17  C   LIG    1        2.038  -0.847  -1.376  0.00  0.00    +0.117 A 
BRANCH  11  18
ATOM     18  C   LIG    1       -0.418  -0.652  -0.657  0.00  0.00    +0.171 C 
BRANCH  18  19
ATOM     19  O   LIG    1       -0.699  -1.855  -1.353  0.00  0.00    -0.385 OA
ATOM     20  H   LIG    1       -0.392  -2.594  -0.822  0.00  0.00    +0.210 HD
ENDBRANCH  18  19
BRANCH  18  21
ATOM     21  C   LIG    1       -1.138   0.525  -1.355  0.00  0.00    +0.192 C 
BRANCH  21  22
ATOM     22  O   LIG    1       -0.591   0.829  -2.626  0.00  0.00    -0.392 OA
ATOM     23  H   LIG    1       -1.089   1.556  -3.007  0.00  0.00    +0.210 HD
ENDBRANCH  21  22
ENDBRANCH  18  21
ENDBRANCH  11  18
ENDBRANCH   1  15
BRANCH   6  24
ATOM     24  C   LIG    1        9.361   2.245   3.650  0.00  0.00    +0.126 A 
ATOM     25  N   LIG    1        9.347   3.609   3.682  0.00  0.00    -0.240 NA
ATOM     26  C   LIG    1        9.867   4.239   4.765  0.00  0.00    +0.125 A 
ATOM     27  C   LIG    1       10.418   3.555   5.855  0.00  0.00    +0.073 A 
ATOM     28  C   LIG    1       10.424   2.156   5.809  0.00  0.00    +0.017 A 
ATOM     29  C   LIG    1        9.894   1.493   4.702  0.00  0.00    +0.044 A 
BRANCH  27  30
ATOM     30  C   LIG    1       10.998   4.290   7.061  0.00  0.00    +0.419 C 
ATOM     31  F   LIG    1       12.276   3.945   7.222  0.00  0.00    -0.166 F 
ATOM     32  F   LIG    1       10.322   3.949   8.159  0.00  0.00    -0.166 F 
ATOM     33  F   LIG    1       10.936   5.615   6.926  0.00  0.00    -0.166 F 
ENDBRANCH  27  30
ENDBRANCH   6  24
TORSDOF 7
