REMARK  Name = DB16869
REMARK                            x       y       z     vdW  Elec       q    Type
REMARK                         _______ _______ _______ _____ _____    ______ ____
ROOT
ATOM      1  C   LIG    1        0.140   0.195   0.275  0.00  0.00    +0.066 A 
ATOM      2  C   LIG    1       -0.730   1.249   0.145  0.00  0.00    +0.092 A 
ATOM      3  C   LIG    1       -0.589   2.682   0.033  0.00  0.00    +0.283 A 
ATOM      4  O   LIG    1        0.439   3.361   0.032  0.00  0.00    -0.265 OA
ATOM      5  N   LIG    1       -1.861   3.121  -0.087  0.00  0.00    -0.194 N 
ATOM      6  N   LIG    1       -2.787   2.154   0.012  0.00  0.00    -0.163 NA
ATOM      7  C   LIG    1       -2.153   1.080   0.156  0.00  0.00    +0.104 A 
ATOM      8  C   LIG    1       -2.633  -0.254   0.376  0.00  0.00    +0.095 A 
ATOM      9  C   LIG    1       -1.762  -1.286   0.487  0.00  0.00    +0.195 A 
ATOM     10  N   LIG    1       -0.363  -1.130   0.322  0.00  0.00    -0.314 N 
ATOM     11  C   LIG    1        0.438  -2.160  -0.378  0.00  0.00    +0.152 C 
ENDROOT
BRANCH   5  12
ATOM     12  C   LIG    1       -2.288   4.458  -0.236  0.00  0.00    +0.088 A 
ATOM     13  C   LIG    1       -3.099   4.866  -1.316  0.00  0.00    +0.066 A 
ATOM     14 CL   LIG    1       -3.604   3.772  -2.562  0.00  0.00    -0.081 Cl
ATOM     15  C   LIG    1       -3.495   6.201  -1.421  0.00  0.00    +0.022 A 
ATOM     16  C   LIG    1       -3.086   7.137  -0.473  0.00  0.00    +0.002 A 
ATOM     17  C   LIG    1       -2.272   6.745   0.586  0.00  0.00    +0.002 A 
ATOM     18  C   LIG    1       -1.871   5.415   0.703  0.00  0.00    +0.029 A 
ENDBRANCH   5  12
BRANCH   1  19
ATOM     19  C   LIG    1        1.614   0.404   0.318  0.00  0.00    +0.001 A 
ATOM     20  C   LIG    1        2.361  -0.098   1.392  0.00  0.00    +0.033 A 
ATOM     21  C   LIG    1        3.757   0.063   1.472  0.00  0.00    +0.030 A 
ATOM     22  C   LIG    1        4.388   0.756   0.423  0.00  0.00    +0.023 A 
ATOM     23  C   LIG    1        3.661   1.259  -0.653  0.00  0.00    +0.002 A 
ATOM     24  C   LIG    1        2.283   1.080  -0.707  0.00  0.00    +0.010 A 
BRANCH  21  25
ATOM     25  N   LIG    1        4.501  -0.448   2.573  0.00  0.00    -0.336 N 
ATOM     26  C   LIG    1        3.855  -1.325   3.550  0.00  0.00    +0.129 C 
ATOM     27  C   LIG    1        5.961  -0.506   2.503  0.00  0.00    +0.129 C 
ENDBRANCH  21  25
ENDBRANCH   1  19
BRANCH   9  28
ATOM     28  O   LIG    1       -2.137  -2.475   0.825  0.00  0.00    -0.493 OA
ATOM     29  H   LIG    1       -1.505  -3.164   0.891  0.00  0.00    +0.294 HD
ENDBRANCH   9  28
TORSDOF 4
