REMARK  Name = DB16141
REMARK                            x       y       z     vdW  Elec       q    Type
REMARK                         _______ _______ _______ _____ _____    ______ ____
ROOT
ATOM      1  C   LIG    1       -5.965   2.332  -2.574  0.00  0.00    +0.002 C 
ATOM      2  C   LIG    1       -6.703   2.491  -3.935  0.00  0.00    -0.000 C 
ATOM      3  C   LIG    1       -8.145   3.070  -3.781  0.00  0.00    -0.006 C 
ATOM      4  C   LIG    1       -9.055   2.287  -2.800  0.00  0.00    +0.008 C 
ATOM      5  C   LIG    1       -8.819   3.182  -5.170  0.00  0.00    +0.034 C 
ATOM      6  C   LIG    1       -8.839   1.807  -5.825  0.00  0.00    -0.063 C 
ATOM      7  C   LIG    1       -9.988   1.147  -6.096  0.00  0.00    +0.045 C 
ATOM      8  C   LIG    1      -10.047  -0.205  -6.631  0.00  0.00    +0.156 C 
ATOM      9  O   LIG    1      -11.108  -0.715  -6.985  0.00  0.00    -0.293 OA
ATOM     10  C   LIG    1       -8.735  -0.993  -6.579  0.00  0.00    +0.079 C 
ATOM     11  C   LIG    1       -7.527  -0.092  -6.903  0.00  0.00    +0.016 C 
ATOM     12  C   LIG    1       -7.433   1.222  -6.066  0.00  0.00    +0.019 C 
ATOM     13  C   LIG    1       -6.675   1.112  -4.697  0.00  0.00    +0.003 C 
ATOM     14  C   LIG    1       -5.208   0.550  -4.835  0.00  0.00    -0.009 C 
ATOM     15  C   LIG    1       -4.388   1.187  -5.982  0.00  0.00    +0.008 C 
ATOM     16  C   LIG    1       -4.450   0.572  -3.471  0.00  0.00    +0.014 C 
ATOM     17  C   LIG    1       -4.479   1.938  -2.736  0.00  0.00    +0.008 C 
ATOM     18  C   LIG    1       -3.593   3.016  -3.440  0.00  0.00    +0.015 C 
ATOM     19  C   LIG    1       -4.111   1.860  -1.233  0.00  0.00    +0.183 C 
ATOM     20  C   LIG    1       -4.805   3.083  -0.582  0.00  0.00    +0.045 C 
ATOM     21  C   LIG    1       -5.949   3.471  -1.542  0.00  0.00    +0.008 C 
ENDROOT
BRANCH  19  22
ATOM     22  O   LIG    1       -2.698   1.812  -1.017  0.00  0.00    -0.461 OA
BRANCH  22  23
ATOM     23  C   LIG    1       -2.176   1.443   0.174  0.00  0.00    +0.307 C 
ATOM     24  O   LIG    1       -2.814   1.133   1.183  0.00  0.00    -0.251 OA
BRANCH  23  25
ATOM     25  C   LIG    1       -0.647   1.413   0.162  0.00  0.00    +0.120 C 
BRANCH  25  26
ATOM     26  C   LIG    1       -0.088  -0.022   0.185  0.00  0.00    +0.011 C 
BRANCH  26  27
ATOM     27  C   LIG    1        1.452  -0.060   0.187  0.00  0.00    +0.001 C 
BRANCH  27  28
ATOM     28  C   LIG    1        2.052  -1.478   0.095  0.00  0.00    +0.000 C 
BRANCH  28  29
ATOM     29  C   LIG    1        1.770  -2.370   1.323  0.00  0.00    +0.000 C 
BRANCH  29  30
ATOM     30  C   LIG    1        2.354  -3.793   1.225  0.00  0.00    -0.000 C 
BRANCH  30  31
ATOM     31  C   LIG    1        3.893  -3.858   1.252  0.00  0.00    -0.000 C 
BRANCH  31  32
ATOM     32  C   LIG    1        4.427  -5.302   1.252  0.00  0.00    -0.000 C 
BRANCH  32  33
ATOM     33  C   LIG    1        5.964  -5.376   1.279  0.00  0.00    -0.003 C 
ATOM     34  C   LIG    1        6.493  -6.817   1.288  0.00  0.00    +0.004 C 
ENDBRANCH  32  33
ENDBRANCH  31  32
ENDBRANCH  30  31
ENDBRANCH  29  30
ENDBRANCH  28  29
ENDBRANCH  27  28
ENDBRANCH  26  27
ENDBRANCH  25  26
ENDBRANCH  23  25
ENDBRANCH  22  23
ENDBRANCH  19  22
TORSDOF 11
