REMARK  Name = DB16028
REMARK                            x       y       z     vdW  Elec       q    Type
REMARK                         _______ _______ _______ _____ _____    ______ ____
ROOT
ATOM      1  C   LIG    1        3.499   1.298   0.108  0.00  0.00    +0.121 A 
ATOM      2  C   LIG    1        3.942   2.611   0.270  0.00  0.00    +0.046 A 
ATOM      3  C   LIG    1        5.296   2.919   0.172  0.00  0.00    +0.007 A 
ATOM      4  C   LIG    1        6.224   1.909  -0.088  0.00  0.00    -0.046 A 
ATOM      5  C   LIG    1        5.791   0.592  -0.254  0.00  0.00    +0.007 A 
ATOM      6  C   LIG    1        4.436   0.285  -0.155  0.00  0.00    +0.046 A 
ENDROOT
BRANCH   1   7
ATOM      7  O   LIG    1        2.139   1.089   0.222  0.00  0.00    -0.484 OA
BRANCH   7   8
ATOM      8  C   LIG    1        1.632  -0.235   0.066  0.00  0.00    +0.308 C 
BRANCH   8   9
ATOM      9  C   LIG    1        0.099  -0.260   0.199  0.00  0.00    +0.200 C 
ATOM     10  O   LIG    1       -0.508   0.794   0.407  0.00  0.00    -0.288 OA
BRANCH   9  13
ATOM     11  C   LIG    1       -2.673  -2.866   0.031  0.00  0.00    +0.121 A 
ATOM     12  C   LIG    1       -1.989  -1.653   0.152  0.00  0.00    +0.057 A 
ATOM     13  C   LIG    1       -0.590  -1.585   0.060  0.00  0.00    +0.024 A 
ATOM     14  C   LIG    1        0.124  -2.774  -0.158  0.00  0.00    +0.012 A 
ATOM     15  C   LIG    1       -0.545  -3.990  -0.280  0.00  0.00    +0.004 A 
ATOM     16  C   LIG    1       -1.934  -4.039  -0.187  0.00  0.00    +0.045 A 
BRANCH  11  18
ATOM     17  C   LIG    1       -4.797  -4.023   0.024  0.00  0.00    +0.277 C 
ATOM     18  O   LIG    1       -4.050  -2.817   0.137  0.00  0.00    -0.495 OA
ENDBRANCH  11  18
ENDBRANCH   9  13
ENDBRANCH   8   9
ENDBRANCH   7   8
ENDBRANCH   1   7
BRANCH   4  19
ATOM     19  C   LIG    1        7.707   2.249  -0.195  0.00  0.00    +0.059 C 
BRANCH  19  20
ATOM     20  C   LIG    1        8.387   2.624   1.148  0.00  0.00    +0.146 C 
ATOM     21  C   LIG    1        8.488   1.440   2.117  0.00  0.00    +0.234 C 
ATOM     22  O   LIG    1        7.523   0.819   2.558  0.00  0.00    -0.274 OA
ATOM     23  N   LIG    1        9.765   1.185   2.422  0.00  0.00    -0.246 N 
ATOM     24  H   LIG    1        9.981   0.421   3.046  0.00  0.00    +0.158 HD
ATOM     25  C   LIG    1       10.762   1.923   1.922  0.00  0.00    +0.279 C 
ATOM     26  O   LIG    1       11.963   1.776   2.133  0.00  0.00    -0.263 OA
ATOM     27  S   LIG    1       10.071   3.212   0.872  0.00  0.00    -0.054 S 
ENDBRANCH  19  20
ENDBRANCH   4  19
TORSDOF 7
