REMARK  Name = DB16039
REMARK                            x       y       z     vdW  Elec       q    Type
REMARK                         _______ _______ _______ _____ _____    ______ ____
ROOT
ATOM      1  B   LIG    1       -2.281   5.258   0.391  0.00  0.00    +0.000 B 
ATOM      2  C   LIG    1       -1.652   3.886  -0.009  0.00  0.00    +0.000 A 
ATOM      3  C   LIG    1       -1.339   3.280  -1.225  0.00  0.00    +0.000 A 
ATOM      4  C   LIG    1       -0.766   2.006  -1.228  0.00  0.00    +0.000 A 
ATOM      5  C   LIG    1       -0.506   1.347  -0.020  0.00  0.00    +0.000 A 
ATOM      6  C   LIG    1       -0.831   1.965   1.193  0.00  0.00    +0.000 A 
ATOM      7  C   LIG    1       -1.402   3.239   1.190  0.00  0.00    +0.000 A 
ATOM      8  C   LIG    1       -1.836   4.123   2.337  0.00  0.00    +0.000 C 
ATOM      9  O   LIG    1       -2.357   5.320   1.767  0.00  0.00    +0.000 OA
ENDROOT
BRANCH   1  10
ATOM     10  O   LIG    1       -2.682   6.210  -0.498  0.00  0.00    +0.000 OA
ATOM     11  H   LIG    1       -3.045   6.979  -0.052  0.00  0.00    +0.000 HD
ENDBRANCH   1  10
BRANCH   5  12
ATOM     12  O   LIG    1        0.052   0.094  -0.027  0.00  0.00    +0.000 OA
BRANCH  12  13
ATOM     13  C   LIG    1        1.422   0.024  -0.015  0.00  0.00    +0.000 A 
ATOM     14  C   LIG    1        2.130  -0.045  -1.214  0.00  0.00    +0.000 A 
ATOM     15  C   LIG    1        3.521  -0.119  -1.203  0.00  0.00    +0.000 A 
ATOM     16  C   LIG    1        4.227  -0.129   0.006  0.00  0.00    +0.000 A 
ATOM     17  C   LIG    1        3.512  -0.063   1.226  0.00  0.00    +0.000 A 
ATOM     18  C   LIG    1        2.114   0.010   1.198  0.00  0.00    +0.000 A 
BRANCH  16  19
ATOM     19  C   LIG    1        5.687  -0.209  -0.071  0.00  0.00    +0.000 C 
ATOM     20  N   LIG    1        6.841  -0.273  -0.132  0.00  0.00    +0.000 NA
ENDBRANCH  16  19
BRANCH  17  21
ATOM     21  C   LIG    1        4.157  -0.065   2.542  0.00  0.00    +0.000 C 
ATOM     22  N   LIG    1        4.666  -0.067   3.581  0.00  0.00    +0.000 NA
ENDBRANCH  17  21
ENDBRANCH  12  13
ENDBRANCH   5  12
TORSDOF 5
