REMARK  Name = DB16031
REMARK                            x       y       z     vdW  Elec       q    Type
REMARK                         _______ _______ _______ _____ _____    ______ ____
ROOT
ATOM      1  C   LIG    1        0.252  -0.143   0.316  0.00  0.00    -0.002 C 
ATOM      2  C   LIG    1       -0.342  -0.997   1.488  0.00  0.00    -0.026 C 
ATOM      3  C   LIG    1        0.512  -2.284   1.723  0.00  0.00    +0.012 C 
ATOM      4  C   LIG    1       -0.598  -0.234   2.819  0.00  0.00    +0.007 C 
ATOM      5  C   LIG    1       -1.441  -1.070   3.813  0.00  0.00    +0.005 C 
ATOM      6  C   LIG    1       -2.811  -1.532   3.215  0.00  0.00    +0.004 C 
ATOM      7  C   LIG    1       -3.701  -2.379   4.221  0.00  0.00    +0.012 C 
ATOM      8  C   LIG    1       -2.982  -3.702   4.619  0.00  0.00    +0.018 C 
ATOM      9  C   LIG    1       -5.045  -2.790   3.500  0.00  0.00    +0.064 C 
ATOM     10  N   LIG    1       -6.186  -2.607   4.056  0.00  0.00    -0.096 NA
ATOM     11  C   LIG    1       -4.812  -3.446   2.109  0.00  0.00    +0.055 C 
ATOM     12  C   LIG    1       -3.984  -2.516   1.210  0.00  0.00    +0.010 C 
ATOM     13  C   LIG    1       -2.606  -2.212   1.822  0.00  0.00    -0.003 C 
ATOM     14  C   LIG    1       -1.752  -1.288   0.909  0.00  0.00    -0.001 C 
ATOM     15  C   LIG    1       -1.513  -1.688  -0.547  0.00  0.00    +0.004 C 
ATOM     16  C   LIG    1       -0.297  -0.845  -0.960  0.00  0.00    +0.004 C 
ENDROOT
BRANCH   1  17
ATOM     17  C   LIG    1        1.802   0.101   0.266  0.00  0.00    -0.010 C 
ATOM     18  C   LIG    1        2.358   0.732   1.563  0.00  0.00    +0.008 C 
BRANCH  17  19
ATOM     19  C   LIG    1        2.206   0.953  -0.972  0.00  0.00    +0.003 C 
BRANCH  19  20
ATOM     20  C   LIG    1        3.717   0.978  -1.288  0.00  0.00    +0.001 C 
BRANCH  20  21
ATOM     21  C   LIG    1        4.040   1.685  -2.620  0.00  0.00    +0.003 C 
BRANCH  21  22
ATOM     22  C   LIG    1        5.528   1.623  -3.041  0.00  0.00    -0.017 C 
ATOM     23  C   LIG    1        5.720   2.156  -4.473  0.00  0.00    +0.007 C 
ATOM     24  C   LIG    1        6.463   2.354  -2.057  0.00  0.00    +0.007 C 
ENDBRANCH  21  22
ENDBRANCH  20  21
ENDBRANCH  19  20
ENDBRANCH  17  19
ENDBRANCH   1  17
BRANCH  10  25
ATOM     25  O   LIG    1       -7.296  -3.033   3.308  0.00  0.00    -0.409 OA
ATOM     26  H   LIG    1       -8.027  -2.811   3.891  0.00  0.00    +0.328 HD
ENDBRANCH  10  25
BRANCH   7  27
ATOM     27  C   LIG    1       -3.994  -1.539   5.522  0.00  0.00    +0.015 C 
BRANCH  27  28
ATOM     28  C   LIG    1       -4.561  -0.104   5.349  0.00  0.00    +0.029 C 
BRANCH  28  29
ATOM     29  C   LIG    1       -4.997   0.564   6.665  0.00  0.00    +0.156 C 
BRANCH  29  30
ATOM     30  O   LIG    1       -3.909   0.687   7.558  0.00  0.00    -0.395 OA
ATOM     31  H   LIG    1       -3.641  -0.192   7.836  0.00  0.00    +0.209 HD
ENDBRANCH  29  30
ENDBRANCH  28  29
ENDBRANCH  27  28
ENDBRANCH   7  27
TORSDOF 10
