REMARK  Name = DB16878
REMARK                            x       y       z     vdW  Elec       q    Type
REMARK                         _______ _______ _______ _____ _____    ______ ____
ROOT
ATOM      1  C   LIG    1       -4.403  -2.216  -0.127  0.00  0.00    +0.121 A 
ATOM      2  C   LIG    1       -3.007  -2.291  -0.247  0.00  0.00    +0.059 A 
ATOM      3  C   LIG    1       -2.217  -1.135  -0.162  0.00  0.00    +0.054 A 
ATOM      4  C   LIG    1       -0.706  -1.286  -0.239  0.00  0.00    +0.276 A 
ATOM      5  O   LIG    1       -0.124  -2.371  -0.338  0.00  0.00    -0.266 OA
ATOM      6  N   LIG    1       -0.056  -0.070  -0.160  0.00  0.00    -0.219 N 
ATOM      7  N   LIG    1       -0.652   1.165   0.058  0.00  0.00    -0.167 NA
ATOM      8  C   LIG    1       -1.926   1.311   0.115  0.00  0.00    +0.099 A 
ATOM      9  C   LIG    1       -2.819   0.125   0.033  0.00  0.00    +0.015 A 
ATOM     10  C   LIG    1       -4.214   0.184   0.177  0.00  0.00    +0.014 A 
ATOM     11  C   LIG    1       -4.990  -0.970   0.091  0.00  0.00    +0.046 A 
ENDROOT
BRANCH   8  12
ATOM     12  C   LIG    1       -2.486   2.668   0.275  0.00  0.00    +0.005 A 
ATOM     13  C   LIG    1       -3.464   3.155  -0.605  0.00  0.00    +0.048 A 
ATOM     14  C   LIG    1       -3.970   4.447  -0.457  0.00  0.00    +0.124 A 
ATOM     15  F   LIG    1       -4.916   4.904  -1.308  0.00  0.00    -0.205 F 
ATOM     16  C   LIG    1       -3.498   5.269   0.566  0.00  0.00    +0.038 A 
ATOM     17  C   LIG    1       -2.517   4.800   1.439  0.00  0.00    +0.003 A 
ATOM     18  C   LIG    1       -2.010   3.509   1.292  0.00  0.00    +0.010 A 
ENDBRANCH   8  12
BRANCH   1  19
ATOM     19  O   LIG    1       -5.256  -3.301  -0.198  0.00  0.00    -0.492 OA
BRANCH  19  20
ATOM     20  C   LIG    1       -4.717  -4.600  -0.422  0.00  0.00    +0.225 C 
ATOM     21  C   LIG    1       -5.866  -5.611  -0.465  0.00  0.00    +0.048 C 
ENDBRANCH  19  20
ENDBRANCH   1  19
BRANCH   6  22
ATOM     22  C   LIG    1        1.429  -0.069  -0.129  0.00  0.00    +0.243 C 
BRANCH  22  23
ATOM     23  C   LIG    1        2.058  -0.274  -1.538  0.00  0.00    +0.241 C 
ATOM     24  O   LIG    1        1.322  -0.287  -2.532  0.00  0.00    -0.273 OA
ATOM     25  N   LIG    1        3.412  -0.425  -1.630  0.00  0.00    -0.273 N 
ATOM     26  C   LIG    1        4.273  -0.309  -0.445  0.00  0.00    +0.138 C 
BRANCH  25  27
ATOM     27  C   LIG    1        4.050  -0.640  -2.872  0.00  0.00    +0.040 A 
ATOM     28  C   LIG    1        5.032   0.268  -3.305  0.00  0.00    +0.026 A 
ATOM     29  C   LIG    1        5.709   0.102  -4.519  0.00  0.00    +0.033 A 
ATOM     30  C   LIG    1        5.386  -1.012  -5.306  0.00  0.00    +0.110 A 
ATOM     31  N   LIG    1        5.870  -1.431  -6.514  0.00  0.00    -0.214 NA
ATOM     32  C   LIG    1        5.191  -2.535  -6.750  0.00  0.00    +0.194 A 
ATOM     33  C   LIG    1        5.314  -3.429  -7.959  0.00  0.00    +0.109 C 
ATOM     34  O   LIG    1        4.286  -2.894  -5.791  0.00  0.00    -0.440 OA
ATOM     35  C   LIG    1        4.408  -1.913  -4.857  0.00  0.00    +0.157 A 
ATOM     36  C   LIG    1        3.722  -1.764  -3.649  0.00  0.00    +0.072 A 
ENDBRANCH  25  27
ENDBRANCH  22  23
ENDBRANCH   6  22
TORSDOF 6
