REMARK  Name = DB16887
REMARK                            x       y       z     vdW  Elec       q    Type
REMARK                         _______ _______ _______ _____ _____    ______ ____
ROOT
ATOM      1  C   LIG    1        1.713  -0.794   0.232  0.00  0.00    +0.125 C 
ATOM      2  C   LIG    1        2.049  -1.795   1.364  0.00  0.00    +0.024 C 
ENDROOT
BRANCH   1   3
ATOM      3  C   LIG    1        0.234  -0.391   0.148  0.00  0.00    -0.034 A 
ATOM      4  C   LIG    1       -0.093   0.874  -0.353  0.00  0.00    +0.005 A 
ATOM      5  C   LIG    1       -1.424   1.269  -0.453  0.00  0.00    +0.004 A 
ATOM      6  C   LIG    1       -2.441   0.401  -0.054  0.00  0.00    -0.047 A 
ATOM      7  C   LIG    1       -2.122  -0.863   0.447  0.00  0.00    +0.004 A 
ATOM      8  C   LIG    1       -0.791  -1.259   0.545  0.00  0.00    +0.005 A 
BRANCH   6   9
ATOM      9  C   LIG    1       -3.898   0.832  -0.172  0.00  0.00    +0.038 C 
BRANCH   9  10
ATOM     10  C   LIG    1       -4.469   0.745  -1.608  0.00  0.00    -0.013 C 
ATOM     11  C   LIG    1       -4.442  -0.688  -2.175  0.00  0.00    +0.007 C 
ATOM     12  C   LIG    1       -5.891   1.330  -1.672  0.00  0.00    +0.007 C 
ENDBRANCH   9  10
ENDBRANCH   6   9
ENDBRANCH   1   3
BRANCH   1  13
ATOM     13  C   LIG    1        2.155  -1.302  -1.154  0.00  0.00    +0.315 C 
ATOM     14  O   LIG    1        2.069  -2.490  -1.475  0.00  0.00    -0.250 OA
BRANCH  13  15
ATOM     15  O   LIG    1        2.643  -0.310  -1.926  0.00  0.00    -0.458 OA
BRANCH  15  16
ATOM     16  C   LIG    1        3.095  -0.572  -3.253  0.00  0.00    +0.287 C 
BRANCH  16  17
ATOM     17  C   LIG    1        3.618   0.681  -3.952  0.00  0.00    +0.079 A 
ATOM     18  N   LIG    1        3.631   1.853  -3.256  0.00  0.00    -0.256 NA
ATOM     19  C   LIG    1        4.099   2.964  -3.880  0.00  0.00    +0.111 A 
ATOM     20  C   LIG    1        4.566   2.954  -5.196  0.00  0.00    +0.020 A 
ATOM     21  C   LIG    1        4.546   1.747  -5.899  0.00  0.00    +0.003 A 
ATOM     22  C   LIG    1        4.067   0.594  -5.274  0.00  0.00    +0.027 A 
ENDBRANCH  16  17
ENDBRANCH  15  16
ENDBRANCH  13  15
ENDBRANCH   1  13
TORSDOF 7
