REMARK  Name = DB16828
REMARK                            x       y       z     vdW  Elec       q    Type
REMARK                         _______ _______ _______ _____ _____    ______ ____
ROOT
ATOM      1  C   LIG    1        5.754  -0.072  -0.025  0.00  0.00    +0.079 A 
ATOM      2  C   LIG    1        6.506  -0.980  -0.807  0.00  0.00    +0.009 A 
ATOM      3  C   LIG    1        7.903  -0.872  -0.765  0.00  0.00    +0.024 A 
ATOM      4  C   LIG    1        8.525   0.088   0.040  0.00  0.00    +0.046 A 
ATOM      5  C   LIG    1       10.010   0.216   0.114  0.00  0.00    +0.171 A 
ATOM      6  N   LIG    1       10.941  -0.412  -0.454  0.00  0.00    -0.151 NA
ATOM      7  N   LIG    1       12.046   0.163   0.017  0.00  0.00    -0.226 N 
ATOM      8  H   LIG    1       12.938  -0.184  -0.304  0.00  0.00    +0.194 HD
ATOM      9  C   LIG    1       11.841   1.146   0.906  0.00  0.00    +0.348 A 
ATOM     10  O   LIG    1       12.671   1.825   1.510  0.00  0.00    -0.245 OA
ATOM     11  N   LIG    1       10.498   1.185   0.945  0.00  0.00    -0.250 N 
ATOM     12  C   LIG    1        9.685   2.014   1.682  0.00  0.00    +0.100 A 
ATOM     13  C   LIG    1        8.339   1.950   1.660  0.00  0.00    +0.046 A 
ATOM     14  C   LIG    1        7.697   0.938   0.800  0.00  0.00    +0.077 A 
ATOM     15  N   LIG    1        6.345   0.861   0.770  0.00  0.00    -0.246 NA
ENDROOT
BRANCH   1  19
ATOM     16  C   LIG    1        1.456   0.051   0.029  0.00  0.00    -0.059 A 
ATOM     17  C   LIG    1        2.147   0.087  -1.187  0.00  0.00    +0.003 A 
ATOM     18  C   LIG    1        3.538   0.054  -1.202  0.00  0.00    +0.010 A 
ATOM     19  C   LIG    1        4.263  -0.025  -0.007  0.00  0.00    +0.001 A 
ATOM     20  C   LIG    1        3.565  -0.058   1.206  0.00  0.00    +0.010 A 
ATOM     21  C   LIG    1        2.174  -0.023   1.226  0.00  0.00    +0.003 A 
BRANCH  16  25
ATOM     22  C   LIG    1       -0.871  -0.700  -1.041  0.00  0.00    -0.008 C 
ATOM     23  C   LIG    1       -1.885  -1.165   0.008  0.00  0.00    -0.002 C 
ATOM     24  C   LIG    1       -0.847  -0.801   1.073  0.00  0.00    -0.008 C 
ATOM     25  C   LIG    1       -0.072   0.068   0.047  0.00  0.00    -0.045 C 
BRANCH  25  26
ATOM     26  N   LIG    1       -0.515   1.545   0.122  0.00  0.00    +0.385 N 
ATOM     27  H   LIG    1       -0.149   1.974   0.960  0.00  0.00    -0.089 HD
ATOM     28  H   LIG    1       -0.178   2.050  -0.684  0.00  0.00    -0.089 HD
ATOM     29  H   LIG    1       -1.523   1.603   0.143  0.00  0.00    -0.089 HD
ENDBRANCH  25  26
ENDBRANCH  16  25
ENDBRANCH   1  19
BRANCH   2  30
ATOM     30  C   LIG    1        5.887  -2.046  -1.646  0.00  0.00    -0.016 A 
ATOM     31  C   LIG    1        4.989  -2.963  -1.086  0.00  0.00    +0.008 A 
ATOM     32  C   LIG    1        4.410  -3.956  -1.871  0.00  0.00    +0.001 A 
ATOM     33  C   LIG    1        4.732  -4.040  -3.223  0.00  0.00    +0.000 A 
ATOM     34  C   LIG    1        5.631  -3.141  -3.793  0.00  0.00    +0.001 A 
ATOM     35  C   LIG    1        6.208  -2.149  -3.005  0.00  0.00    +0.008 A 
ENDBRANCH   2  30
TORSDOF 4
