REMARK  Name = DB16879
REMARK                            x       y       z     vdW  Elec       q    Type
REMARK                         _______ _______ _______ _____ _____    ______ ____
ROOT
ATOM      1  C   LIG    1       -0.074   0.078   0.039  0.00  0.00    +0.001 A 
ATOM      2  C   LIG    1       -0.720  -1.174   0.021  0.00  0.00    +0.095 A 
ATOM      3  N   LIG    1       -2.074  -1.301   0.079  0.00  0.00    -0.245 NA
ATOM      4  C   LIG    1       -2.847  -0.186   0.153  0.00  0.00    +0.074 A 
ATOM      5  C   LIG    1       -4.255  -0.328   0.206  0.00  0.00    +0.066 A 
ATOM      6  C   LIG    1       -5.069   0.800   0.286  0.00  0.00    +0.125 A 
ATOM      7  F   LIG    1       -6.413   0.655   0.336  0.00  0.00    -0.205 F 
ATOM      8  C   LIG    1       -4.511   2.075   0.315  0.00  0.00    +0.039 A 
ATOM      9  C   LIG    1       -3.130   2.248   0.262  0.00  0.00    +0.013 A 
ATOM     10  C   LIG    1       -2.277   1.120   0.180  0.00  0.00    +0.001 A 
ATOM     11  C   LIG    1       -0.870   1.228   0.127  0.00  0.00    +0.017 A 
ENDROOT
BRANCH   2  12
ATOM     12  C   LIG    1        0.001  -2.473  -0.066  0.00  0.00    +0.089 A 
ATOM     13  C   LIG    1        0.777  -2.819  -1.180  0.00  0.00    +0.030 A 
ATOM     14  C   LIG    1        1.422  -4.057  -1.197  0.00  0.00    +0.004 A 
ATOM     15  C   LIG    1        1.277  -4.922  -0.111  0.00  0.00    +0.020 A 
ATOM     16  C   LIG    1        0.484  -4.515   0.962  0.00  0.00    +0.111 A 
ATOM     17  N   LIG    1       -0.150  -3.315   0.995  0.00  0.00    -0.253 NA
ENDBRANCH   2  12
BRANCH   1  18
ATOM     18  C   LIG    1        1.460   0.212   0.037  0.00  0.00    +0.101 C 
ATOM     19  C   LIG    1        1.990   0.355   1.473  0.00  0.00    +0.033 C 
BRANCH  18  20
ATOM     20  N   LIG    1        1.951   1.304  -0.812  0.00  0.00    -0.321 N 
ATOM     21  H   LIG    1        2.674   1.899  -0.433  0.00  0.00    +0.148 HD
BRANCH  20  22
ATOM     22  C   LIG    1        1.665   1.428  -2.185  0.00  0.00    +0.150 A 
ATOM     23  N   LIG    1        0.850   0.531  -2.812  0.00  0.00    -0.219 NA
ATOM     24  C   LIG    1        0.610   0.714  -4.138  0.00  0.00    +0.225 A 
ATOM     25  N   LIG    1        1.091   1.697  -4.947  0.00  0.00    -0.216 NA
ATOM     26  C   LIG    1        1.889   2.551  -4.296  0.00  0.00    +0.163 A 
ATOM     27  N   LIG    1        2.552   3.658  -4.766  0.00  0.00    -0.329 N 
ATOM     28  H   LIG    1        2.572   4.048  -5.698  0.00  0.00    +0.168 HD
ATOM     29  C   LIG    1        3.232   4.185  -3.692  0.00  0.00    +0.198 A 
ATOM     30  N   LIG    1        3.066   3.520  -2.574  0.00  0.00    -0.231 NA
ATOM     31  C   LIG    1        2.227   2.489  -2.921  0.00  0.00    +0.147 A 
ENDBRANCH  20  22
ENDBRANCH  18  20
ENDBRANCH   1  18
TORSDOF 4
