REMARK  Name = DB16169
REMARK                            x       y       z     vdW  Elec       q    Type
REMARK                         _______ _______ _______ _____ _____    ______ ____
ROOT
ATOM      1  C   LIG    1       -0.671  -0.462   0.374  0.00  0.00    +0.055 A 
ATOM      2  N   LIG    1       -1.989  -0.348   0.352  0.00  0.00    -0.243 NA
ATOM      3  C   LIG    1       -2.403   0.813  -0.090  0.00  0.00    +0.109 A 
ATOM      4  S   LIG    1       -1.104   1.884  -0.517  0.00  0.00    -0.072 S 
ATOM      5  C   LIG    1        0.051   0.657  -0.062  0.00  0.00    +0.014 A 
ENDROOT
BRANCH   3   6
ATOM      6  C   LIG    1       -3.854   1.198  -0.212  0.00  0.00    +0.007 A 
ATOM      7  C   LIG    1       -4.250   2.407  -0.800  0.00  0.00    +0.011 A 
ATOM      8  C   LIG    1       -5.598   2.740  -0.902  0.00  0.00    +0.013 A 
ATOM      9  C   LIG    1       -6.578   1.868  -0.419  0.00  0.00    +0.055 A 
ATOM     10  C   LIG    1       -6.191   0.661   0.170  0.00  0.00    +0.013 A 
ATOM     11  C   LIG    1       -4.843   0.330   0.269  0.00  0.00    +0.011 A 
BRANCH   9  12
ATOM     12  C   LIG    1       -8.059   2.234  -0.514  0.00  0.00    +0.417 C 
ATOM     13  F   LIG    1       -8.732   1.788   0.549  0.00  0.00    -0.166 F 
ATOM     14  F   LIG    1       -8.576   1.675  -1.608  0.00  0.00    -0.166 F 
ATOM     15  F   LIG    1       -8.240   3.554  -0.587  0.00  0.00    -0.166 F 
ENDBRANCH   9  12
ENDBRANCH   3   6
BRANCH   1  17
ATOM     16  C   LIG    1       -0.629  -2.999   0.103  0.00  0.00    +0.014 C 
ATOM     17  C   LIG    1       -0.101  -1.783   0.890  0.00  0.00    +0.032 C 
ATOM     18  C   LIG    1       -0.330  -1.947   2.404  0.00  0.00    +0.014 C 
ENDBRANCH   1  17
BRANCH   5  19
ATOM     19  C   LIG    1        1.546   0.887  -0.145  0.00  0.00    +0.050 C 
BRANCH  19  20
ATOM     20  C   LIG    1        2.103   1.486   1.160  0.00  0.00    +0.065 C 
BRANCH  20  21
ATOM     21  C   LIG    1        3.615   1.412   1.217  0.00  0.00    +0.092 A 
ATOM     22  C   LIG    1        4.429   0.261   1.447  0.00  0.00    +0.045 A 
ATOM     23  C   LIG    1        4.236  -1.104   1.700  0.00  0.00    +0.020 A 
ATOM     24  C   LIG    1        5.359  -1.925   1.872  0.00  0.00    -0.008 A 
ATOM     25  C   LIG    1        5.143  -3.407   2.146  0.00  0.00    +0.047 C 
ATOM     26  C   LIG    1        6.666  -1.408   1.797  0.00  0.00    +0.128 A 
ATOM     27  C   LIG    1        6.868  -0.039   1.545  0.00  0.00    +0.095 A 
ATOM     28  C   LIG    1        5.733   0.759   1.377  0.00  0.00    +0.171 A 
ATOM     29  O   LIG    1        5.701   2.097   1.127  0.00  0.00    -0.354 OA
ATOM     30  N   LIG    1        4.357   2.484   1.029  0.00  0.00    -0.082 NA
BRANCH  26  31
ATOM     31  O   LIG    1        7.705  -2.303   1.982  0.00  0.00    -0.480 OA
BRANCH  31  32
ATOM     32  C   LIG    1        9.061  -1.853   1.878  0.00  0.00    +0.349 C 
BRANCH  32  33
ATOM     33  C   LIG    1       10.030  -3.033   2.114  0.00  0.00    +0.343 C 
ATOM     34  O   LIG    1       11.250  -2.766   2.030  0.00  0.00    -0.247 OA
BRANCH  33  35
ATOM     35  O   LIG    1        9.579  -4.174   2.372  0.00  0.00    -0.478 OA
ATOM     36  H   LIG    1       10.167  -4.889   2.515  0.00  0.00    +0.295 HD
ENDBRANCH  33  35
ENDBRANCH  32  33
ENDBRANCH  31  32
ENDBRANCH  26  31
ENDBRANCH  20  21
ENDBRANCH  19  20
ENDBRANCH   5  19
TORSDOF 10
