REMARK  Name = DB16308
REMARK                            x       y       z     vdW  Elec       q    Type
REMARK                         _______ _______ _______ _____ _____    ______ ____
ROOT
ATOM      1  C   LIG    1        1.412   0.181   0.043  0.00  0.00    +0.130 A 
ATOM      2  C   LIG    1        2.070  -0.677   0.948  0.00  0.00    +0.011 A 
ATOM      3  C   LIG    1        1.311  -1.620   1.880  0.00  0.00    +0.049 C 
ATOM      4  C   LIG    1        3.474  -0.611   0.966  0.00  0.00    +0.048 A 
ATOM      5  C   LIG    1        4.319  -1.474   1.891  0.00  0.00    +0.066 C 
ATOM      6  N   LIG    1        4.175   0.225   0.155  0.00  0.00    -0.219 NA
ATOM      7  C   LIG    1        3.462   1.010  -0.689  0.00  0.00    +0.221 A 
ATOM      8  N   LIG    1        2.108   1.011  -0.785  0.00  0.00    -0.199 NA
ENDROOT
BRANCH   1  19
ATOM      9  C   LIG    1        0.053  -1.997  -1.430  0.00  0.00    +0.033 C 
ATOM     10  C   LIG    1       -0.558  -0.579  -1.257  0.00  0.00    +0.102 C 
ATOM     11  C   LIG    1       -2.109  -0.629  -1.250  0.00  0.00    -0.024 A 
ATOM     12  C   LIG    1       -2.830  -1.492  -2.094  0.00  0.00    +0.006 A 
ATOM     13  C   LIG    1       -4.222  -1.481  -2.138  0.00  0.00    +0.000 A 
ATOM     14  C   LIG    1       -4.931  -0.587  -1.347  0.00  0.00    +0.000 A 
ATOM     15  C   LIG    1       -4.242   0.293  -0.520  0.00  0.00    +0.004 A 
ATOM     16  C   LIG    1       -2.843   0.286  -0.463  0.00  0.00    -0.041 A 
ATOM     17  C   LIG    1       -2.111   1.257   0.448  0.00  0.00    +0.054 C 
ATOM     18  C   LIG    1       -0.656   1.462  -0.001  0.00  0.00    +0.112 C 
ATOM     19  N   LIG    1        0.030   0.168  -0.114  0.00  0.00    -0.308 N 
ENDBRANCH   1  19
BRANCH   7  20
ATOM     20  N   LIG    1        4.222   1.836  -1.532  0.00  0.00    -0.284 N 
ATOM     21  H   LIG    1        5.218   1.687  -1.461  0.00  0.00    +0.155 HD
BRANCH  20  22
ATOM     22  C   LIG    1        3.852   2.859  -2.421  0.00  0.00    +0.034 A 
ATOM     23  C   LIG    1        2.712   3.651  -2.227  0.00  0.00    +0.026 A 
ATOM     24  C   LIG    1        2.400   4.660  -3.134  0.00  0.00    +0.040 A 
ATOM     25  C   LIG    1        3.229   4.886  -4.230  0.00  0.00    +0.124 A 
ATOM     26  F   LIG    1        2.926   5.867  -5.110  0.00  0.00    -0.205 F 
ATOM     27  C   LIG    1        4.372   4.113  -4.423  0.00  0.00    +0.040 A 
ATOM     28  C   LIG    1        4.684   3.103  -3.516  0.00  0.00    +0.026 A 
ENDBRANCH  20  22
ENDBRANCH   7  20
TORSDOF 3
