REMARK  Name = DB16111
REMARK                            x       y       z     vdW  Elec       q    Type
REMARK                         _______ _______ _______ _____ _____    ______ ____
ROOT
ATOM      1  C   LIG    1        1.664  -0.234  -0.082  0.00  0.00    +0.144 C 
ATOM      2  N   LIG    1        2.338   0.354  -1.271  0.00  0.00    -0.287 NA
ATOM      3  C   LIG    1        3.810   0.368  -1.165  0.00  0.00    +0.086 C 
ATOM      4  C   LIG    1        4.324   1.036   0.123  0.00  0.00    +0.022 C 
ATOM      5  C   LIG    1        3.684   0.395   1.359  0.00  0.00    -0.026 C 
ATOM      6  C   LIG    1        4.332   0.608   2.709  0.00  0.00    +0.007 C 
ATOM      7  C   LIG    1        4.402  -0.748   2.045  0.00  0.00    +0.007 C 
ATOM      8  C   LIG    1        2.154   0.360   1.271  0.00  0.00    +0.035 C 
ENDROOT
BRANCH   1  11
ATOM      9  N   LIG    1       -0.652  -1.030   0.202  0.00  0.00    -0.304 N 
ATOM     10  H   LIG    1       -0.199  -1.932   0.192  0.00  0.00    +0.150 HD
ATOM     11  C   LIG    1        0.131   0.007  -0.152  0.00  0.00    +0.231 C 
ATOM     12  O   LIG    1       -0.318   1.095  -0.526  0.00  0.00    -0.274 OA
BRANCH   9  13
ATOM     13  C   LIG    1       -2.107  -1.068   0.037  0.00  0.00    +0.060 C 
ATOM     14  C   LIG    1       -2.916  -1.471   1.254  0.00  0.00    +0.033 C 
ATOM     15  C   LIG    1       -2.927  -0.035   0.797  0.00  0.00    +0.033 C 
BRANCH  13  19
ATOM     16  C   LIG    1       -3.429  -2.283  -3.920  0.00  0.00    +0.059 A 
ATOM     17  C   LIG    1       -3.193  -0.928  -3.614  0.00  0.00    +0.015 A 
ATOM     18  C   LIG    1       -2.771  -0.538  -2.346  0.00  0.00    +0.006 A 
ATOM     19  C   LIG    1       -2.563  -1.495  -1.354  0.00  0.00    -0.024 A 
ATOM     20  C   LIG    1       -2.805  -2.840  -1.627  0.00  0.00    +0.006 A 
ATOM     21  C   LIG    1       -3.228  -3.228  -2.895  0.00  0.00    +0.015 A 
BRANCH  16  22
ATOM     22  C   LIG    1       -3.883  -2.708  -5.303  0.00  0.00    +0.337 C 
ATOM     23  O   LIG    1       -4.049  -1.828  -6.182  0.00  0.00    -0.245 OA
BRANCH  22  24
ATOM     24  O   LIG    1       -4.078  -3.926  -5.528  0.00  0.00    -0.477 OA
ATOM     25  H   LIG    1       -4.486  -4.463  -4.877  0.00  0.00    +0.295 HD
ENDBRANCH  22  24
ENDBRANCH  16  22
ENDBRANCH  13  19
ENDBRANCH   9  13
ENDBRANCH   1  11
BRANCH   2  26
ATOM     26  C   LIG    1        1.948  -0.282  -2.545  0.00  0.00    +0.120 C 
BRANCH  26  27
ATOM     27  C   LIG    1        2.166   0.634  -3.742  0.00  0.00    -0.033 A 
ATOM     28  C   LIG    1        1.350   1.753  -3.917  0.00  0.00    +0.005 A 
ATOM     29  C   LIG    1        1.541   2.588  -5.014  0.00  0.00    +0.012 A 
ATOM     30  C   LIG    1        2.548   2.309  -5.944  0.00  0.00    +0.055 A 
ATOM     31  C   LIG    1        3.362   1.185  -5.765  0.00  0.00    +0.012 A 
ATOM     32  C   LIG    1        3.171   0.350  -4.668  0.00  0.00    +0.005 A 
BRANCH  30  33
ATOM     33  C   LIG    1        2.741   3.237  -7.143  0.00  0.00    +0.417 C 
ATOM     34  F   LIG    1        1.724   3.076  -7.990  0.00  0.00    -0.166 F 
ATOM     35  F   LIG    1        3.875   2.989  -7.801  0.00  0.00    -0.166 F 
ATOM     36  F   LIG    1        2.767   4.510  -6.743  0.00  0.00    -0.166 F 
ENDBRANCH  30  33
ENDBRANCH  26  27
ENDBRANCH   2  26
TORSDOF 8
