REMARK  Name = DB16027
REMARK                            x       y       z     vdW  Elec       q    Type
REMARK                         _______ _______ _______ _____ _____    ______ ____
ROOT
ATOM      1  C   LIG    1        2.771  -0.270   0.513  0.00  0.00    +0.004 C 
ENDROOT
BRANCH   1   2
ATOM      2  C   LIG    1        2.383   0.946  -0.344  0.00  0.00    +0.027 C 
BRANCH   2   4
ATOM      3  C   LIG    1       -0.103   1.422  -0.801  0.00  0.00    -0.027 C 
ATOM      4  C   LIG    1        1.052   0.779  -1.061  0.00  0.00    -0.031 C 
BRANCH   3   5
ATOM      5  C   LIG    1       -0.367   2.442   0.295  0.00  0.00    +0.053 C 
BRANCH   5   7
ATOM      6  C   LIG    1        0.501   4.851  -0.009  0.00  0.00    -0.031 C 
ATOM      7  C   LIG    1       -0.402   3.872  -0.221  0.00  0.00    -0.027 C 
BRANCH   6   8
ATOM      8  C   LIG    1        1.780   4.774   0.810  0.00  0.00    +0.027 C 
BRANCH   8   9
ATOM      9  C   LIG    1        3.047   4.711  -0.060  0.00  0.00    +0.004 C 
BRANCH   9  10
ATOM     10  C   LIG    1        4.329   4.495   0.767  0.00  0.00    +0.000 C 
BRANCH  10  12
ATOM     11  C   LIG    1        5.717   3.203  -0.989  0.00  0.00    +0.004 C 
ATOM     12  C   LIG    1        5.620   4.432  -0.072  0.00  0.00    -0.003 C 
ENDBRANCH  10  12
ENDBRANCH   9  10
ENDBRANCH   8   9
ENDBRANCH   6   8
ENDBRANCH   5   7
ENDBRANCH   3   5
ENDBRANCH   2   4
ENDBRANCH   1   2
BRANCH   1  13
ATOM     13  C   LIG    1        4.114  -0.078   1.238  0.00  0.00    +0.000 C 
BRANCH  13  14
ATOM     14  C   LIG    1        4.497  -1.274   2.127  0.00  0.00    +0.000 C 
BRANCH  14  15
ATOM     15  C   LIG    1        5.830  -1.065   2.868  0.00  0.00    +0.003 C 
BRANCH  15  16
ATOM     16  C   LIG    1        6.217  -2.261   3.760  0.00  0.00    +0.043 C 
BRANCH  16  17
ATOM     17  C   LIG    1        7.530  -2.047   4.560  0.00  0.00    +0.222 C 
BRANCH  17  18
ATOM     18  C   LIG    1        7.739  -3.182   5.609  0.00  0.00    +0.334 C 
ATOM     19  O   LIG    1        6.959  -3.190   6.590  0.00  0.00    -0.248 OA
BRANCH  18  20
ATOM     20  O   LIG    1        8.658  -4.022   5.455  0.00  0.00    -0.479 OA
ATOM     21  H   LIG    1        8.781  -4.703   6.086  0.00  0.00    +0.295 HD
ENDBRANCH  18  20
ENDBRANCH  17  18
BRANCH  17  22
ATOM     22  O   LIG    1        8.623  -1.954   3.652  0.00  0.00    -0.381 OA
ATOM     23  H   LIG    1        9.210  -2.695   3.820  0.00  0.00    +0.211 HD
ENDBRANCH  17  22
ENDBRANCH  16  17
ENDBRANCH  15  16
ENDBRANCH  14  15
ENDBRANCH  13  14
ENDBRANCH   1  13
TORSDOF 16
