REMARK  Name = DB16213
REMARK                            x       y       z     vdW  Elec       q    Type
REMARK                         _______ _______ _______ _____ _____    ______ ____
ROOT
ATOM      1  C   LIG    1        3.219  -1.042  -0.108  0.00  0.00    +0.134 A 
ATOM      2  C   LIG    1        3.981  -1.557  -1.160  0.00  0.00    +0.047 A 
ATOM      3  C   LIG    1        5.374  -1.581  -1.078  0.00  0.00    +0.007 A 
ATOM      4  C   LIG    1        6.009  -1.109   0.072  0.00  0.00    -0.042 A 
ATOM      5  C   LIG    1        7.483  -1.037   0.399  0.00  0.00    +0.037 C 
ATOM      6  C   LIG    1        7.490  -0.705   1.894  0.00  0.00    +0.028 C 
ATOM      7  C   LIG    1        6.161   0.011   2.188  0.00  0.00    +0.085 C 
ATOM      8  C   LIG    1        5.256  -0.540   1.103  0.00  0.00    -0.024 A 
ATOM      9  C   LIG    1        3.862  -0.547   1.034  0.00  0.00    +0.052 A 
ENDROOT
BRANCH   7  10
ATOM     10  N   LIG    1        6.257   1.464   2.058  0.00  0.00    -0.299 NA
ATOM     11  H   LIG    1        5.326   1.844   1.955  0.00  0.00    +0.123 HD
BRANCH  10  12
ATOM     12  C   LIG    1        6.886   2.082   3.216  0.00  0.00    +0.171 C 
BRANCH  12  13
ATOM     13  C   LIG    1        6.972   3.531   2.979  0.00  0.00    -0.090 C 
ATOM     14  C   LIG    1        7.045   4.736   2.797  0.00  0.00    +0.005 C 
ENDBRANCH  12  13
ENDBRANCH  10  12
ENDBRANCH   7  10
BRANCH   1  15
ATOM     15  O   LIG    1        1.844  -1.061  -0.198  0.00  0.00    -0.411 OA
BRANCH  15  17
ATOM     16  N   LIG    1       -0.246  -0.116  -0.258  0.00  0.00    -0.270 N 
ATOM     17  C   LIG    1        1.140   0.110  -0.322  0.00  0.00    +0.408 C 
ATOM     18  O   LIG    1        1.669   1.217  -0.465  0.00  0.00    -0.226 OA
ATOM     19  C   LIG    1       -1.182   1.007  -0.313  0.00  0.00    +0.135 C 
BRANCH  16  21
ATOM     20  C   LIG    1       -0.877  -1.833   1.462  0.00  0.00    +0.024 C 
ATOM     21  C   LIG    1       -0.843  -1.439  -0.024  0.00  0.00    +0.107 C 
ENDBRANCH  16  21
ENDBRANCH  15  17
ENDBRANCH   1  15
TORSDOF 6
