REMARK  Name = DB16862
REMARK                            x       y       z     vdW  Elec       q    Type
REMARK                         _______ _______ _______ _____ _____    ______ ____
ROOT
ATOM      1  C   LIG    1        1.480   0.020   0.000  0.00  0.00    +0.112 A 
ATOM      2  N   LIG    1        2.209  -1.154   0.000  0.00  0.00    -0.350 N 
ATOM      3  H   LIG    1        1.754  -2.056   0.000  0.00  0.00    +0.166 HD
ATOM      4  C   LIG    1        3.565  -0.920   0.000  0.00  0.00    +0.051 A 
ATOM      5  C   LIG    1        4.647  -1.807   0.000  0.00  0.00    +0.026 A 
ATOM      6  C   LIG    1        5.925  -1.248   0.000  0.00  0.00    +0.002 A 
ATOM      7  C   LIG    1        6.123   0.129   0.000  0.00  0.00    +0.001 A 
ATOM      8  C   LIG    1        5.043   1.011   0.000  0.00  0.00    +0.013 A 
ATOM      9  C   LIG    1        3.732   0.495   0.000  0.00  0.00    +0.042 A 
ATOM     10  C   LIG    1        2.412   1.073   0.000  0.00  0.00    +0.151 A 
ENDROOT
BRANCH   1  11
ATOM     11  C   LIG    1       -0.005  -0.013   0.000  0.00  0.00    +0.138 C 
ATOM     12  N   LIG    1       -0.707   1.054   0.000  0.00  0.00    -0.241 NA
ATOM     13  C   LIG    1       -2.036   0.657   0.000  0.00  0.00    +0.076 A 
ATOM     14  C   LIG    1       -3.162   1.482   0.000  0.00  0.00    +0.028 A 
ATOM     15  C   LIG    1       -4.433   0.896   0.000  0.00  0.00    +0.002 A 
ATOM     16  C   LIG    1       -4.568  -0.498   0.000  0.00  0.00    +0.001 A 
ATOM     17  C   LIG    1       -3.436  -1.318   0.000  0.00  0.00    +0.014 A 
ATOM     18  C   LIG    1       -2.178  -0.716   0.000  0.00  0.00    +0.049 A 
ATOM     19  C   LIG    1       -0.814  -1.234   0.000  0.00  0.00    +0.215 C 
ATOM     20  O   LIG    1       -0.402  -2.394   0.000  0.00  0.00    -0.285 OA
ENDBRANCH   1  11
BRANCH  10  21
ATOM     21  O   LIG    1        2.172   2.327   0.000  0.00  0.00    -0.504 OA
ATOM     22  H   LIG    1        1.287   2.635   0.000  0.00  0.00    +0.292 HD
ENDBRANCH  10  21
TORSDOF 2
