REMARK  Name = DB16218
REMARK                            x       y       z     vdW  Elec       q    Type
REMARK                         _______ _______ _______ _____ _____    ______ ____
ROOT
ATOM      1  C   LIG    1        2.889   7.627  -1.667  0.00  0.00    +0.222 A 
ATOM      2  N   LIG    1        2.332   8.820  -2.010  0.00  0.00    -0.196 NA
ATOM      3  C   LIG    1        2.930   9.904  -1.492  0.00  0.00    +0.147 A 
ATOM      4  N   LIG    1        2.593  11.249  -1.671  0.00  0.00    -0.313 N 
ATOM      5  C   LIG    1        1.444  11.834  -2.420  0.00  0.00    +0.063 C 
ATOM      6  C   LIG    1        1.891  13.297  -2.764  0.00  0.00    +0.133 C 
ATOM      7  N   LIG    1        2.473  14.003  -1.617  0.00  0.00    -0.308 N 
ATOM      8  H   LIG    1        2.213  14.968  -1.476  0.00  0.00    +0.149 HD
ATOM      9  C   LIG    1        3.297  13.446  -0.703  0.00  0.00    +0.261 C 
ATOM     10  O   LIG    1        3.804  14.150   0.169  0.00  0.00    -0.269 OA
ATOM     11  C   LIG    1        1.123  11.091  -3.757  0.00  0.00    +0.030 C 
ATOM     12  C   LIG    1       -0.128  11.640  -4.476  0.00  0.00    +0.002 C 
ATOM     13  C   LIG    1       -1.364  11.608  -3.558  0.00  0.00    +0.000 C 
ATOM     14  C   LIG    1       -1.107  12.304  -2.208  0.00  0.00    +0.002 C 
ATOM     15  C   LIG    1        0.175  11.788  -1.516  0.00  0.00    +0.030 C 
ATOM     16  C   LIG    1        3.465  12.017  -0.890  0.00  0.00    +0.107 A 
ATOM     17  C   LIG    1        4.352  11.176  -0.237  0.00  0.00    +0.044 A 
ATOM     18  C   LIG    1        4.049   9.842  -0.621  0.00  0.00    +0.038 A 
ATOM     19  C   LIG    1        4.545   8.563  -0.334  0.00  0.00    +0.126 A 
ATOM     20  N   LIG    1        3.968   7.454  -0.858  0.00  0.00    -0.222 NA
ENDROOT
BRANCH   1  21
ATOM     21  N   LIG    1        2.248   6.510  -2.228  0.00  0.00    -0.268 N 
ATOM     22  H   LIG    1        1.461   6.755  -2.810  0.00  0.00    +0.156 HD
BRANCH  21  26
ATOM     23  C   LIG    1        2.877   2.360  -2.008  0.00  0.00    +0.048 A 
ATOM     24  C   LIG    1        3.695   3.296  -1.351  0.00  0.00    +0.136 A 
ATOM     25  N   LIG    1        3.507   4.637  -1.403  0.00  0.00    -0.238 NA
ATOM     26  C   LIG    1        2.480   5.125  -2.146  0.00  0.00    +0.125 A 
ATOM     27  C   LIG    1        1.629   4.276  -2.854  0.00  0.00    +0.045 A 
ATOM     28  C   LIG    1        1.838   2.897  -2.790  0.00  0.00    +0.028 A 
BRANCH  23  33
ATOM     29  N   LIG    1        1.762  -0.999  -0.183  0.00  0.00    +0.383 N 
ATOM     30  H   LIG    1        2.259  -1.836  -0.455  0.00  0.00    -0.081 HD
ATOM     31  C   LIG    1        1.109  -0.399  -1.454  0.00  0.00    -0.059 C 
ATOM     32  C   LIG    1        2.207  -0.027  -2.476  0.00  0.00    +0.086 C 
ATOM     33  N   LIG    1        3.145   0.986  -1.958  0.00  0.00    -0.332 N 
ATOM     34  C   LIG    1        3.805   0.366  -0.794  0.00  0.00    +0.086 C 
ATOM     35  C   LIG    1        2.807   0.022   0.336  0.00  0.00    -0.059 C 
BRANCH  29  37
ATOM     36  C   LIG    1        1.387  -1.915   2.177  0.00  0.00    -0.014 C 
ATOM     37  C   LIG    1        0.704  -1.371   0.902  0.00  0.00    -0.075 C 
ATOM     38  C   LIG    1       -0.306  -2.402   0.350  0.00  0.00    -0.014 C 
ENDBRANCH  29  37
ENDBRANCH  23  33
ENDBRANCH  21  26
ENDBRANCH   1  21
TORSDOF 4
