REMARK  Name = DB16629
REMARK                            x       y       z     vdW  Elec       q    Type
REMARK                         _______ _______ _______ _____ _____    ______ ____
ROOT
ATOM      1  O   LIG    1        0.886   0.188   1.371  0.00  0.00    -0.434 OA
ENDROOT
BRANCH   1   8
ATOM      2  C   LIG    1       -2.217   2.125   0.817  0.00  0.00    +0.097 C 
ATOM      3  C   LIG    1       -2.479   2.046  -0.716  0.00  0.00    +0.024 C 
ATOM      4  C   LIG    1       -2.874   0.626  -1.187  0.00  0.00    +0.003 C 
ATOM      5  C   LIG    1       -1.938  -0.468  -0.629  0.00  0.00    +0.019 C 
ATOM      6  C   LIG    1       -1.723  -0.321   0.894  0.00  0.00    +0.111 C 
ATOM      7  N   LIG    1       -1.224   1.054   1.105  0.00  0.00    -0.263 N 
ATOM      8  C   LIG    1        0.165   1.313   1.070  0.00  0.00    +0.404 C 
ATOM      9  O   LIG    1        0.680   2.407   0.820  0.00  0.00    -0.226 OA
BRANCH   2  10
ATOM     10  C   LIG    1       -2.005   3.579   1.361  0.00  0.00    +0.148 C 
BRANCH  10  13
ATOM     11  C   LIG    1       -4.133   6.494   0.125  0.00  0.00    +0.000 A 
ATOM     12  C   LIG    1       -3.047   5.658   0.370  0.00  0.00    +0.004 A 
ATOM     13  C   LIG    1       -3.215   4.488   1.117  0.00  0.00    -0.032 A 
ATOM     14  C   LIG    1       -4.484   4.159   1.614  0.00  0.00    +0.004 A 
ATOM     15  C   LIG    1       -5.569   4.997   1.369  0.00  0.00    +0.000 A 
ATOM     16  C   LIG    1       -5.389   6.160   0.625  0.00  0.00    +0.000 A 
ENDBRANCH  10  13
BRANCH  10  17
ATOM     17  C   LIG    1       -1.656   3.641   2.865  0.00  0.00    +0.316 C 
ATOM     18  O   LIG    1       -2.073   2.801   3.667  0.00  0.00    -0.250 OA
BRANCH  17  19
ATOM     19  O   LIG    1       -0.844   4.679   3.158  0.00  0.00    -0.467 OA
ATOM     20  C   LIG    1       -0.407   4.899   4.491  0.00  0.00    +0.280 C 
ENDBRANCH  17  19
ENDBRANCH  10  17
ENDBRANCH   2  10
ENDBRANCH   1   8
BRANCH   1  21
ATOM     21  C   LIG    1        2.277   0.294   1.310  0.00  0.00    +0.324 C 
BRANCH  21  22
ATOM     22  N   LIG    1        2.833  -1.111   1.173  0.00  0.00    -0.260 NA
ATOM     23  C   LIG    1        2.986  -1.641  -0.064  0.00  0.00    +0.095 C 
ATOM     24  C   LIG    1        3.457  -2.953  -0.231  0.00  0.00    +0.083 C 
ATOM     25  C   LIG    1        3.758  -3.697   0.925  0.00  0.00    +0.016 C 
ATOM     26  C   LIG    1        3.578  -3.131   2.188  0.00  0.00    +0.017 C 
ATOM     27  C   LIG    1        3.104  -1.823   2.292  0.00  0.00    +0.081 C 
BRANCH  24  28
ATOM     28  C   LIG    1        3.628  -3.521  -1.622  0.00  0.00    +0.223 C 
ATOM     29  O   LIG    1        3.581  -2.785  -2.609  0.00  0.00    -0.275 OA
ATOM     30  N   LIG    1        3.812  -4.853  -1.710  0.00  0.00    -0.300 N 
ATOM     31  H   LIG    1        3.816  -5.401  -0.862  0.00  0.00    +0.150 HD
BRANCH  30  32
ATOM     32  CA  LIG    1        3.977  -5.635  -2.948  0.00  0.00    +0.207 C 
BRANCH  32  33
ATOM     33  C   LIG    1        3.312  -7.053  -2.732  0.00  0.00    +0.328 C 
ATOM     34  O   LIG    1        4.049  -8.062  -2.830  0.00  0.00    -0.249 OA
BRANCH  33  35
ATOM     35  O   LIG    1        2.083  -7.016  -2.484  0.00  0.00    -0.479 OA
ATOM     36  H   LIG    1        1.639  -6.192  -2.436  0.00  0.00    +0.295 HD
ENDBRANCH  33  35
ENDBRANCH  32  33
BRANCH  32  37
ATOM     37  C   LIG    1        5.483  -5.695  -3.360  0.00  0.00    +0.189 C 
BRANCH  37  38
ATOM     38  O   LIG    1        5.913  -4.468  -3.916  0.00  0.00    -0.393 OA
ATOM     39  H   LIG    1        5.874  -3.794  -3.234  0.00  0.00    +0.209 HD
ENDBRANCH  37  38
ENDBRANCH  32  37
ENDBRANCH  30  32
ENDBRANCH  24  28
ENDBRANCH  21  22
ENDBRANCH   1  21
TORSDOF 13
