REMARK  Name = DB16948
REMARK                            x       y       z     vdW  Elec       q    Type
REMARK                         _______ _______ _______ _____ _____    ______ ____
ROOT
ATOM      1  C   LIG    1       -6.571  -1.066   3.855  0.00  0.00    +0.184 C 
ATOM      2  C   LIG    1       -5.968   0.270   4.332  0.00  0.00    +0.187 C 
ATOM      3  C   LIG    1       -5.056   0.897   3.251  0.00  0.00    +0.202 C 
ATOM      4  C   LIG    1       -4.046  -0.152   2.747  0.00  0.00    +0.282 C 
ATOM      5  O   LIG    1       -4.750  -1.275   2.280  0.00  0.00    -0.341 OA
ATOM      6  C   LIG    1       -5.452  -1.980   3.309  0.00  0.00    +0.178 C 
ENDROOT
BRANCH   3   7
ATOM      7  O   LIG    1       -4.387   2.033   3.770  0.00  0.00    -0.384 OA
ATOM      8  H   LIG    1       -4.203   1.877   4.699  0.00  0.00    +0.210 HD
ENDBRANCH   3   7
BRANCH   1   9
ATOM      9  O   LIG    1       -7.524  -0.825   2.817  0.00  0.00    -0.341 OA
BRANCH   9  12
ATOM     10  C   LIG    1      -11.195  -0.336   2.402  0.00  0.00    +0.177 C 
ATOM     11  C   LIG    1       -9.684  -0.230   2.058  0.00  0.00    +0.160 C 
ATOM     12  C   LIG    1       -8.867  -0.872   3.192  0.00  0.00    +0.274 C 
ATOM     13  O   LIG    1       -9.264  -2.210   3.359  0.00  0.00    -0.341 OA
ATOM     14  C   LIG    1      -10.615  -2.347   3.821  0.00  0.00    +0.178 C 
ATOM     15  C   LIG    1      -11.587  -1.793   2.746  0.00  0.00    +0.176 C 
BRANCH  11  16
ATOM     16  N   LIG    1       -9.176   1.071   1.597  0.00  0.00    -0.305 N 
ATOM     17  H   LIG    1       -8.542   1.029   0.813  0.00  0.00    +0.149 HD
ATOM     18  C   LIG    1       -9.418   2.278   2.137  0.00  0.00    +0.210 C 
ATOM     19  O   LIG    1      -10.149   2.471   3.107  0.00  0.00    -0.276 OA
ATOM     20  C   LIG    1       -8.714   3.462   1.485  0.00  0.00    +0.109 C 
ENDBRANCH  11  16
BRANCH  15  21
ATOM     21  O   LIG    1      -11.624  -2.608   1.585  0.00  0.00    -0.387 OA
ATOM     22  H   LIG    1      -12.319  -2.280   1.009  0.00  0.00    +0.210 HD
ENDBRANCH  15  21
BRANCH  10  23
ATOM     23  O   LIG    1      -11.972   0.263   1.361  0.00  0.00    -0.341 OA
BRANCH  23  24
ATOM     24  C   LIG    1      -13.308   0.555   1.646  0.00  0.00    +0.282 C 
ATOM     25  C   LIG    1      -13.767   1.612   0.625  0.00  0.00    +0.201 C 
ATOM     26  C   LIG    1      -15.282   1.886   0.799  0.00  0.00    +0.179 C 
ATOM     27  C   LIG    1      -16.098   0.574   0.819  0.00  0.00    +0.177 C 
ATOM     28  C   LIG    1      -15.468  -0.414   1.834  0.00  0.00    +0.178 C 
ATOM     29  O   LIG    1      -14.089  -0.605   1.498  0.00  0.00    -0.341 OA
BRANCH  25  30
ATOM     30  O   LIG    1      -13.006   2.802   0.749  0.00  0.00    -0.384 OA
ATOM     31  H   LIG    1      -13.296   3.270   1.536  0.00  0.00    +0.210 HD
ENDBRANCH  25  30
BRANCH  26  32
ATOM     32  O   LIG    1      -15.780   2.807  -0.159  0.00  0.00    -0.386 OA
ATOM     33  H   LIG    1      -15.099   3.461  -0.334  0.00  0.00    +0.210 HD
ENDBRANCH  26  32
BRANCH  27  34
ATOM     34  O   LIG    1      -16.218  -0.001  -0.474  0.00  0.00    -0.386 OA
ATOM     35  H   LIG    1      -16.675   0.625  -1.041  0.00  0.00    +0.210 HD
ENDBRANCH  27  34
BRANCH  28  36
ATOM     36  C   LIG    1      -16.177  -1.784   1.883  0.00  0.00    +0.190 C 
BRANCH  36  37
ATOM     37  O   LIG    1      -15.679  -2.569   2.948  0.00  0.00    -0.392 OA
ATOM     38  H   LIG    1      -16.130  -3.416   2.940  0.00  0.00    +0.210 HD
ENDBRANCH  36  37
ENDBRANCH  28  36
ENDBRANCH  23  24
ENDBRANCH  10  23
BRANCH  14  39
ATOM     39  C   LIG    1      -10.875  -3.823   4.184  0.00  0.00    +0.190 C 
BRANCH  39  40
ATOM     40  O   LIG    1      -10.102  -4.204   5.304  0.00  0.00    -0.392 OA
ATOM     41  H   LIG    1       -9.172  -4.112   5.079  0.00  0.00    +0.210 HD
ENDBRANCH  39  40
ENDBRANCH  14  39
ENDBRANCH   9  12
ENDBRANCH   1   9
BRANCH   2  42
ATOM     42  O   LIG    1       -7.024   1.181   4.673  0.00  0.00    -0.331 OA
BRANCH  42  43
ATOM     43  C   LIG    1       -7.168   1.644   5.995  0.00  0.00    +0.273 C 
ATOM     44  O   LIG    1       -5.943   2.232   6.412  0.00  0.00    -0.332 OA
ATOM     45  C   LIG    1       -5.924   2.981   7.643  0.00  0.00    +0.176 C 
ATOM     46  C   LIG    1       -6.942   4.154   7.593  0.00  0.00    +0.133 C 
ATOM     47  C   LIG    1       -8.322   3.606   7.177  0.00  0.00    +0.143 C 
ATOM     48  C   LIG    1       -8.221   2.780   5.883  0.00  0.00    +0.110 C 
BRANCH  46  49
ATOM     49  N   LIG    1       -6.994   4.979   8.810  0.00  0.00    -0.308 N 
ATOM     50  H   LIG    1       -7.579   4.620   9.550  0.00  0.00    +0.149 HD
ATOM     51  C   LIG    1       -6.396   6.168   9.003  0.00  0.00    +0.210 C 
ATOM     52  O   LIG    1       -5.697   6.733   8.163  0.00  0.00    -0.276 OA
ATOM     53  C   LIG    1       -6.622   6.825  10.360  0.00  0.00    +0.109 C 
ENDBRANCH  46  49
BRANCH  47  54
ATOM     54  O   LIG    1       -9.298   4.624   7.053  0.00  0.00    -0.390 OA
ATOM     55  H   LIG    1       -9.025   5.221   6.353  0.00  0.00    +0.210 HD
ENDBRANCH  47  54
BRANCH  43  56
ATOM     56  C   LIG    1       -7.568   0.453   6.912  0.00  0.00    +0.365 C 
ATOM     57  O   LIG    1       -6.653  -0.159   7.513  0.00  0.00    -0.245 OA
BRANCH  56  58
ATOM     58  O   LIG    1       -8.784   0.159   6.981  0.00  0.00    -0.477 OA
ATOM     59  H   LIG    1       -9.065  -0.552   7.522  0.00  0.00    +0.295 HD
ENDBRANCH  56  58
ENDBRANCH  43  56
BRANCH  45  60
ATOM     60  C   LIG    1       -4.447   3.395   7.905  0.00  0.00    +0.176 C 
BRANCH  60  61
ATOM     61  O   LIG    1       -4.022   4.283   6.884  0.00  0.00    -0.387 OA
ATOM     62  H   LIG    1       -4.073   3.824   6.042  0.00  0.00    +0.210 HD
ENDBRANCH  60  61
BRANCH  60  63
ATOM     63  C   LIG    1       -3.467   2.188   8.031  0.00  0.00    +0.171 C 
BRANCH  63  64
ATOM     64  O   LIG    1       -3.859   1.392   9.135  0.00  0.00    -0.387 OA
ATOM     65  H   LIG    1       -3.827   1.930   9.929  0.00  0.00    +0.210 HD
ENDBRANCH  63  64
BRANCH  63  66
ATOM     66  C   LIG    1       -1.979   2.571   8.231  0.00  0.00    +0.189 C 
BRANCH  66  67
ATOM     67  O   LIG    1       -1.365   2.974   7.022  0.00  0.00    -0.392 OA
ATOM     68  H   LIG    1       -0.452   3.205   7.205  0.00  0.00    +0.210 HD
ENDBRANCH  66  67
ENDBRANCH  63  66
ENDBRANCH  60  63
ENDBRANCH  45  60
ENDBRANCH  42  43
ENDBRANCH   2  42
BRANCH   6  69
ATOM     69  C   LIG    1       -5.966  -3.314   2.730  0.00  0.00    +0.190 C 
BRANCH  69  70
ATOM     70  O   LIG    1       -6.573  -4.112   3.727  0.00  0.00    -0.392 OA
ATOM     71  H   LIG    1       -6.910  -4.912   3.316  0.00  0.00    +0.210 HD
ENDBRANCH  69  70
ENDBRANCH   6  69
BRANCH   4  72
ATOM     72  O   LIG    1       -3.333   0.432   1.693  0.00  0.00    -0.340 OA
BRANCH  72  73
ATOM     73  C   LIG    1       -2.030  -0.083   1.385  0.00  0.00    +0.183 C 
ATOM     74  C   LIG    1       -2.077  -1.385   0.541  0.00  0.00    +0.179 C 
ATOM     75  C   LIG    1       -0.715  -1.722  -0.117  0.00  0.00    +0.201 C 
ATOM     76  C   LIG    1       -0.103  -0.480  -0.777  0.00  0.00    +0.282 C 
ATOM     77  O   LIG    1        0.006   0.536   0.185  0.00  0.00    -0.341 OA
ATOM     78  C   LIG    1       -1.259   1.033   0.627  0.00  0.00    +0.178 C 
BRANCH  74  79
ATOM     79  O   LIG    1       -2.490  -2.502   1.309  0.00  0.00    -0.386 OA
ATOM     80  H   LIG    1       -3.203  -2.220   1.889  0.00  0.00    +0.210 HD
ENDBRANCH  74  79
BRANCH  75  81
ATOM     81  O   LIG    1       -0.843  -2.784  -1.047  0.00  0.00    -0.384 OA
ATOM     82  H   LIG    1       -1.399  -3.462  -0.655  0.00  0.00    +0.210 HD
ENDBRANCH  75  81
BRANCH  76  83
ATOM     83  O   LIG    1        1.167  -0.845  -1.219  0.00  0.00    -0.347 OA
BRANCH  83  84
ATOM     84  C   LIG    1        1.859   0.108  -2.018  0.00  0.00    +0.188 C 
BRANCH  84  85
ATOM     85  C   LIG    1        3.337   0.177  -1.563  0.00  0.00    +0.131 C 
BRANCH  85  86
ATOM     86  N   LIG    1        3.491   0.798  -0.241  0.00  0.00    -0.307 N 
ATOM     87  H   LIG    1        3.837   1.747  -0.254  0.00  0.00    +0.149 HD
ATOM     88  C   LIG    1        3.308   0.226   0.963  0.00  0.00    +0.213 C 
ATOM     89  O   LIG    1        2.925  -0.935   1.110  0.00  0.00    -0.276 OA
BRANCH  88  90
ATOM     90  C   LIG    1        3.598   1.088   2.207  0.00  0.00    +0.096 C 
BRANCH  90  91
ATOM     91  C   LIG    1        4.569   2.282   2.006  0.00  0.00    +0.009 C 
BRANCH  91  92
ATOM     92  C   LIG    1        6.003   1.880   1.597  0.00  0.00    +0.000 C 
BRANCH  92  93
ATOM     93  C   LIG    1        6.898   3.082   1.246  0.00  0.00    +0.000 C 
BRANCH  93  94
ATOM     94  C   LIG    1        8.284   2.651   0.735  0.00  0.00    +0.000 C 
BRANCH  94  95
ATOM     95  C   LIG    1        9.179   3.834   0.324  0.00  0.00    +0.000 C 
BRANCH  95  96
ATOM     96  C   LIG    1       10.541   3.379  -0.231  0.00  0.00    -0.000 C 
BRANCH  96  97
ATOM     97  C   LIG    1       11.440   4.548  -0.671  0.00  0.00    -0.000 C 
BRANCH  97  98
ATOM     98  C   LIG    1       12.780   4.077  -1.267  0.00  0.00    -0.000 C 
BRANCH  98  99
ATOM     99  C   LIG    1       13.675   5.239  -1.733  0.00  0.00    -0.000 C 
BRANCH  99 100
ATOM    100  C   LIG    1       14.995   4.762  -2.366  0.00  0.00    -0.000 C 
BRANCH 100 101
ATOM    101  C   LIG    1       15.884   5.925  -2.848  0.00  0.00    -0.000 C 
BRANCH 101 102
ATOM    102  C   LIG    1       17.158   5.486  -3.598  0.00  0.00    -0.000 C 
BRANCH 102 103
ATOM    103  C   LIG    1       18.186   4.739  -2.726  0.00  0.00    -0.000 C 
BRANCH 103 104
ATOM    104  C   LIG    1       19.478   4.392  -3.493  0.00  0.00    -0.000 C 
BRANCH 104 105
ATOM    105  C   LIG    1       20.567   3.722  -2.632  0.00  0.00    -0.003 C 
ATOM    106  C   LIG    1       20.190   2.328  -2.106  0.00  0.00    +0.004 C 
ENDBRANCH 104 105
ENDBRANCH 103 104
ENDBRANCH 102 103
ENDBRANCH 101 102
ENDBRANCH 100 101
ENDBRANCH  99 100
ENDBRANCH  98  99
ENDBRANCH  97  98
ENDBRANCH  96  97
ENDBRANCH  95  96
ENDBRANCH  94  95
ENDBRANCH  93  94
ENDBRANCH  92  93
ENDBRANCH  91  92
ENDBRANCH  90  91
ENDBRANCH  88  90
ENDBRANCH  85  86
BRANCH  85 107
ATOM    107  C   LIG    1        4.256   0.863  -2.612  0.00  0.00    +0.159 C 
BRANCH 107 108
ATOM    108  C   LIG    1        3.930   2.339  -2.865  0.00  0.00    +0.002 C 
ATOM    109  C   LIG    1        4.738   3.402  -2.672  0.00  0.00    -0.028 C 
BRANCH 109 110
ATOM    110  C   LIG    1        4.407   4.864  -2.943  0.00  0.00    +0.027 C 
BRANCH 110 111
ATOM    111  C   LIG    1        3.025   5.160  -3.566  0.00  0.00    +0.004 C 
BRANCH 111 112
ATOM    112  C   LIG    1        2.819   6.635  -3.967  0.00  0.00    +0.000 C 
BRANCH 112 113
ATOM    113  C   LIG    1        2.713   7.614  -2.779  0.00  0.00    +0.000 C 
BRANCH 113 114
ATOM    114  C   LIG    1        2.675   9.101  -3.187  0.00  0.00    +0.000 C 
BRANCH 114 115
ATOM    115  C   LIG    1        1.439   9.515  -4.011  0.00  0.00    +0.000 C 
BRANCH 115 116
ATOM    116  C   LIG    1        1.428  11.017  -4.349  0.00  0.00    -0.000 C 
BRANCH 116 117
ATOM    117  C   LIG    1        0.210  11.438  -5.192  0.00  0.00    -0.000 C 
BRANCH 117 118
ATOM    118  C   LIG    1        0.219  12.939  -5.543  0.00  0.00    -0.000 C 
BRANCH 118 119
ATOM    119  C   LIG    1       -1.019  13.420  -6.327  0.00  0.00    -0.000 C 
BRANCH 119 120
ATOM    120  C   LIG    1       -1.140  12.831  -7.747  0.00  0.00    -0.000 C 
BRANCH 120 121
ATOM    121  C   LIG    1       -2.324  13.414  -8.538  0.00  0.00    -0.003 C 
ATOM    122  C   LIG    1       -2.448  12.828  -9.950  0.00  0.00    +0.004 C 
ENDBRANCH 120 121
ENDBRANCH 119 120
ENDBRANCH 118 119
ENDBRANCH 117 118
ENDBRANCH 116 117
ENDBRANCH 115 116
ENDBRANCH 114 115
ENDBRANCH 113 114
ENDBRANCH 112 113
ENDBRANCH 111 112
ENDBRANCH 110 111
ENDBRANCH 109 110
ENDBRANCH 107 108
BRANCH 107 123
ATOM    123  O   LIG    1        5.615   0.720  -2.221  0.00  0.00    -0.386 OA
ATOM    124  H   LIG    1        6.171   1.051  -2.929  0.00  0.00    +0.210 HD
ENDBRANCH 107 123
ENDBRANCH  85 107
ENDBRANCH  84  85
ENDBRANCH  83  84
ENDBRANCH  76  83
BRANCH  78 125
ATOM    125  C   LIG    1       -0.970   2.285   1.484  0.00  0.00    +0.190 C 
BRANCH 125 126
ATOM    126  O   LIG    1       -2.128   3.073   1.675  0.00  0.00    -0.392 OA
ATOM    127  H   LIG    1       -1.907   3.812   2.246  0.00  0.00    +0.210 HD
ENDBRANCH 125 126
ENDBRANCH  78 125
ENDBRANCH  72  73
ENDBRANCH   4  72
TORSDOF 69
