REMARK  Name = DB16400
REMARK                            x       y       z     vdW  Elec       q    Type
REMARK                         _______ _______ _______ _____ _____    ______ ____
ROOT
ATOM      1  C   LIG    1        1.495   0.054  -0.043  0.00  0.00    +0.025 A 
ATOM      2  C   LIG    1        2.203   0.651  -1.092  0.00  0.00    +0.022 A 
ATOM      3  C   LIG    1        3.603   0.650  -1.084  0.00  0.00    -0.028 A 
ATOM      4  C   LIG    1        4.583   1.221  -2.103  0.00  0.00    +0.025 C 
ATOM      5  C   LIG    1        4.437   0.521  -3.483  0.00  0.00    +0.035 C 
ATOM      6  C   LIG    1        3.502   1.272  -4.455  0.00  0.00    +0.109 C 
ATOM      7  N   LIG    1        4.027   2.646  -4.657  0.00  0.00    -0.302 N 
ATOM      8  C   LIG    1        3.836   3.298  -5.837  0.00  0.00    +0.212 C 
ATOM      9  O   LIG    1        4.325   4.403  -6.081  0.00  0.00    -0.276 OA
ATOM     10  C   LIG    1        2.922   2.683  -6.904  0.00  0.00    +0.109 C 
ATOM     11  C   LIG    1        4.844   3.307  -3.608  0.00  0.00    +0.109 C 
ATOM     12  C   LIG    1        4.407   2.761  -2.232  0.00  0.00    +0.035 C 
ATOM     13  C   LIG    1        5.922   0.866  -1.464  0.00  0.00    -0.028 A 
ATOM     14  C   LIG    1        7.222   1.123  -1.912  0.00  0.00    +0.022 A 
ATOM     15  C   LIG    1        8.321   0.701  -1.158  0.00  0.00    +0.025 A 
ATOM     16  C   LIG    1        8.119   0.020   0.047  0.00  0.00    +0.017 A 
ATOM     17  C   LIG    1        6.824  -0.238   0.496  0.00  0.00    +0.010 A 
ATOM     18  C   LIG    1        5.730   0.187  -0.261  0.00  0.00    -0.013 A 
ATOM     19  C   LIG    1        4.285   0.052  -0.024  0.00  0.00    -0.013 A 
ATOM     20  C   LIG    1        3.584  -0.544   1.025  0.00  0.00    +0.010 A 
ATOM     21  C   LIG    1        2.189  -0.543   1.014  0.00  0.00    +0.017 A 
ENDROOT
BRANCH   1  23
ATOM     22  C   LIG    1       -1.181   0.021  -0.048  0.00  0.00    -0.063 C 
ATOM     23  C   LIG    1        0.041   0.049  -0.053  0.00  0.00    -0.064 C 
BRANCH  22  24
ATOM     24  C   LIG    1       -2.660  -0.049  -0.025  0.00  0.00    +0.224 C 
ATOM     25  C   LIG    1       -3.240  -0.219   1.406  0.00  0.00    +0.186 C 
ATOM     26  C   LIG    1       -3.047  -1.662   1.940  0.00  0.00    +0.177 C 
ATOM     27  C   LIG    1       -3.522  -2.716   0.909  0.00  0.00    +0.176 C 
ATOM     28  C   LIG    1       -2.878  -2.462  -0.484  0.00  0.00    +0.176 C 
ATOM     29  O   LIG    1       -3.116  -1.104  -0.887  0.00  0.00    -0.353 OA
BRANCH  25  30
ATOM     30  O   LIG    1       -4.601   0.180   1.421  0.00  0.00    -0.386 OA
ATOM     31  H   LIG    1       -4.870   0.315   2.333  0.00  0.00    +0.210 HD
ENDBRANCH  25  30
BRANCH  26  32
ATOM     32  O   LIG    1       -3.639  -1.839   3.217  0.00  0.00    -0.386 OA
ATOM     33  H   LIG    1       -4.591  -1.758   3.125  0.00  0.00    +0.210 HD
ENDBRANCH  26  32
BRANCH  27  34
ATOM     34  O   LIG    1       -3.273  -4.031   1.378  0.00  0.00    -0.386 OA
ATOM     35  H   LIG    1       -2.330  -4.130   1.527  0.00  0.00    +0.210 HD
ENDBRANCH  27  34
BRANCH  28  36
ATOM     36  C   LIG    1       -3.438  -3.360  -1.609  0.00  0.00    +0.190 C 
BRANCH  36  37
ATOM     37  O   LIG    1       -2.950  -4.684  -1.524  0.00  0.00    -0.392 OA
ATOM     38  H   LIG    1       -3.332  -5.198  -2.239  0.00  0.00    +0.210 HD
ENDBRANCH  36  37
ENDBRANCH  28  36
ENDBRANCH  22  24
ENDBRANCH   1  23
BRANCH  15  39
ATOM     39  C   LIG    1        9.672   0.972  -1.625  0.00  0.00    -0.064 C 
ATOM     40  C   LIG    1       10.803   1.221  -2.013  0.00  0.00    -0.063 C 
BRANCH  40  41
ATOM     41  C   LIG    1       12.176   1.549  -2.463  0.00  0.00    +0.224 C 
ATOM     42  C   LIG    1       13.255   0.603  -1.869  0.00  0.00    +0.186 C 
ATOM     43  C   LIG    1       13.545   0.920  -0.379  0.00  0.00    +0.177 C 
ATOM     44  C   LIG    1       13.801   2.432  -0.160  0.00  0.00    +0.176 C 
ATOM     45  C   LIG    1       12.654   3.279  -0.775  0.00  0.00    +0.176 C 
ATOM     46  O   LIG    1       12.481   2.918  -2.156  0.00  0.00    -0.353 OA
BRANCH  42  47
ATOM     47  O   LIG    1       14.429   0.661  -2.664  0.00  0.00    -0.386 OA
ATOM     48  H   LIG    1       15.022  -0.038  -2.381  0.00  0.00    +0.210 HD
ENDBRANCH  42  47
BRANCH  43  49
ATOM     49  O   LIG    1       14.586   0.110   0.144  0.00  0.00    -0.386 OA
ATOM     50  H   LIG    1       14.225  -0.433   0.850  0.00  0.00    +0.210 HD
ENDBRANCH  43  49
BRANCH  44  51
ATOM     51  O   LIG    1       13.973   2.720   1.218  0.00  0.00    -0.386 OA
ATOM     52  H   LIG    1       14.759   2.263   1.527  0.00  0.00    +0.210 HD
ENDBRANCH  44  51
BRANCH  45  53
ATOM     53  C   LIG    1       12.938   4.795  -0.714  0.00  0.00    +0.190 C 
BRANCH  53  54
ATOM     54  O   LIG    1       11.815   5.536  -1.148  0.00  0.00    -0.392 OA
ATOM     55  H   LIG    1       12.025   6.471  -1.091  0.00  0.00    +0.210 HD
ENDBRANCH  53  54
ENDBRANCH  45  53
ENDBRANCH  40  41
ENDBRANCH  15  39
TORSDOF 14
