REMARK  Name = DB16351
REMARK                            x       y       z     vdW  Elec       q    Type
REMARK                         _______ _______ _______ _____ _____    ______ ____
ROOT
ATOM      1  C   LIG    1        2.013  -0.284   1.199  0.00  0.00    +0.019 C 
ATOM      2  C   LIG    1        1.679  -1.563   2.001  0.00  0.00    -0.012 C 
ATOM      3  C   LIG    1        2.151  -1.447   3.461  0.00  0.00    -0.078 C 
ATOM      4  N   LIG    1        3.681  -1.198   3.480  0.00  0.00    +0.380 N 
ATOM      5  H   LIG    1        4.118  -1.999   3.044  0.00  0.00    -0.082 HD
ATOM      6  C   LIG    1        4.072   0.060   2.662  0.00  0.00    -0.078 C 
ATOM      7  C   LIG    1        3.546  -0.095   1.223  0.00  0.00    -0.012 C 
ENDROOT
BRANCH   1   8
ATOM      8  C   LIG    1        1.436  -0.290  -0.248  0.00  0.00    +0.151 C 
BRANCH   8  13
ATOM      9  C   LIG    1       -2.146   1.091   0.039  0.00  0.00    +0.162 A 
ATOM     10  C   LIG    1       -2.898  -0.061  -0.244  0.00  0.00    +0.049 A 
ATOM     11  C   LIG    1       -2.266  -1.266  -0.536  0.00  0.00    +0.004 A 
ATOM     12  C   LIG    1       -0.877  -1.341  -0.544  0.00  0.00    +0.010 A 
ATOM     13  C   LIG    1       -0.099  -0.209  -0.267  0.00  0.00    +0.026 A 
ATOM     14  C   LIG    1       -0.744   1.010   0.010  0.00  0.00    +0.167 A 
BRANCH   9  16
ATOM     15  C   LIG    1       -4.122   2.446   0.410  0.00  0.00    +0.277 C 
ATOM     16  O   LIG    1       -2.705   2.316   0.356  0.00  0.00    -0.491 OA
ENDBRANCH   9  16
BRANCH  14  17
ATOM     17  O   LIG    1        0.007   2.128   0.292  0.00  0.00    -0.491 OA
ATOM     18  C   LIG    1        0.147   3.032  -0.797  0.00  0.00    +0.277 C 
ENDBRANCH  14  17
ENDBRANCH   8  13
BRANCH   8  19
ATOM     19  O   LIG    1        1.964  -1.376  -0.995  0.00  0.00    -0.387 OA
ATOM     20  H   LIG    1        1.724  -1.255  -1.917  0.00  0.00    +0.210 HD
ENDBRANCH   8  19
ENDBRANCH   1   8
BRANCH   4  21
ATOM     21  C   LIG    1        4.164  -1.110   4.949  0.00  0.00    -0.074 C 
BRANCH  21  22
ATOM     22  C   LIG    1        5.703  -1.137   5.047  0.00  0.00    +0.016 C 
BRANCH  22  23
ATOM     23  C   LIG    1        6.179  -1.251   6.487  0.00  0.00    -0.049 A 
ATOM     24  C   LIG    1        6.311  -0.101   7.272  0.00  0.00    +0.006 A 
ATOM     25  C   LIG    1        6.740  -0.206   8.592  0.00  0.00    +0.038 A 
ATOM     26  C   LIG    1        7.037  -1.459   9.125  0.00  0.00    +0.123 A 
ATOM     27  F   LIG    1        7.453  -1.561  10.408  0.00  0.00    -0.205 F 
ATOM     28  C   LIG    1        6.908  -2.609   8.348  0.00  0.00    +0.038 A 
ATOM     29  C   LIG    1        6.479  -2.505   7.028  0.00  0.00    +0.006 A 
ENDBRANCH  22  23
ENDBRANCH  21  22
ENDBRANCH   4  21
TORSDOF 8
