REMARK  Name = DB16112
REMARK                            x       y       z     vdW  Elec       q    Type
REMARK                         _______ _______ _______ _____ _____    ______ ____
ROOT
ATOM      1  C   LIG    1       -0.084  -0.332  -0.215  0.00  0.00    +0.197 C 
ENDROOT
BRANCH   1   2
ATOM      2  C   LIG    1       -0.928   0.972  -0.196  0.00  0.00    +0.275 C 
BRANCH   2   3
ATOM      3  O   LIG    1       -0.584   1.860  -1.260  0.00  0.00    -0.457 OA
BRANCH   3   4
ATOM      4  C   LIG    1        0.216   2.949  -1.082  0.00  0.00    +0.340 C 
ATOM      5  O   LIG    1        0.662   3.267   0.022  0.00  0.00    -0.245 OA
BRANCH   4   8
ATOM      6  C   LIG    1        1.954   5.501  -1.192  0.00  0.00    +0.045 C 
ATOM      7  C   LIG    1        1.293   4.875  -2.419  0.00  0.00    -0.033 A 
ATOM      8  C   LIG    1        0.494   3.703  -2.367  0.00  0.00    +0.066 A 
ATOM      9  C   LIG    1       -0.055   3.229  -3.576  0.00  0.00    +0.064 A 
ATOM     10  C   LIG    1        0.166   3.880  -4.789  0.00  0.00    +0.159 A 
ATOM     11  C   LIG    1        0.951   5.033  -4.823  0.00  0.00    +0.159 A 
ATOM     12  C   LIG    1        1.507   5.519  -3.643  0.00  0.00    +0.053 A 
BRANCH  10  13
ATOM     13  O   LIG    1       -0.397   3.373  -5.933  0.00  0.00    -0.503 OA
ATOM     14  H   LIG    1       -0.924   2.586  -5.778  0.00  0.00    +0.292 HD
ENDBRANCH  10  13
BRANCH  11  15
ATOM     15  O   LIG    1        1.186   5.699  -6.000  0.00  0.00    -0.503 OA
ATOM     16  H   LIG    1        1.731   6.481  -5.887  0.00  0.00    +0.292 HD
ENDBRANCH  11  15
ENDBRANCH   4   8
ENDBRANCH   3   4
ENDBRANCH   2   3
ENDBRANCH   1   2
BRANCH   1  17
ATOM     17  O   LIG    1       -0.339  -1.072  -1.409  0.00  0.00    -0.459 OA
BRANCH  17  18
ATOM     18  C   LIG    1       -1.477  -1.795  -1.591  0.00  0.00    +0.313 C 
ATOM     19  O   LIG    1       -2.362  -1.940  -0.746  0.00  0.00    -0.250 OA
BRANCH  18  20
ATOM     20  C   LIG    1       -1.582  -2.451  -2.988  0.00  0.00    +0.065 C 
ATOM     21  C   LIG    1       -0.299  -2.888  -3.686  0.00  0.00    +0.019 C 
ATOM     22  C   LIG    1       -1.035  -1.679  -4.184  0.00  0.00    +0.019 C 
ATOM     23  C   LIG    1       -2.834  -3.315  -3.249  0.00  0.00    +0.023 C 
ENDBRANCH  18  20
ENDBRANCH  17  18
ENDBRANCH   1  17
BRANCH   1  24
ATOM     24  C   LIG    1        1.445  -0.137  -0.129  0.00  0.00    -0.033 C 
BRANCH  24  25
ATOM     25  N   LIG    1        1.823   0.561   1.194  0.00  0.00    +0.386 N 
ATOM     26  H   LIG    1        1.452   0.012   1.956  0.00  0.00    -0.085 HD
ATOM     27  H   LIG    1        1.347   1.453   1.208  0.00  0.00    -0.085 HD
BRANCH  25  28
ATOM     28  C   LIG    1        3.319   0.835   1.497  0.00  0.00    -0.058 C 
ATOM     29  C   LIG    1        3.929   1.657   0.335  0.00  0.00    -0.009 C 
ATOM     30  C   LIG    1        4.048  -0.528   1.621  0.00  0.00    -0.009 C 
BRANCH  28  31
ATOM     31  C   LIG    1        3.349   1.690   2.808  0.00  0.00    +0.091 C 
BRANCH  31  32
ATOM     32  N   LIG    1        3.314   0.945   4.072  0.00  0.00    -0.316 N 
ATOM     33  H   LIG    1        2.398   0.746   4.447  0.00  0.00    +0.149 HD
ATOM     34  C   LIG    1        4.389   0.565   4.791  0.00  0.00    +0.218 C 
ATOM     35  O   LIG    1        5.546   0.784   4.431  0.00  0.00    -0.275 OA
BRANCH  34  36
ATOM     36  C   LIG    1        4.140  -0.211   6.104  0.00  0.00    +0.103 C 
ATOM     37  C   LIG    1        3.180   0.527   7.063  0.00  0.00    +0.172 C 
ATOM     38  O   LIG    1        2.168  -0.420   7.399  0.00  0.00    -0.379 OA
ATOM     39  C   LIG    1        2.026  -1.341   6.326  0.00  0.00    +0.160 C 
ATOM     40  C   LIG    1        3.460  -1.557   5.854  0.00  0.00    +0.043 C 
ENDBRANCH  34  36
ENDBRANCH  31  32
ENDBRANCH  28  31
ENDBRANCH  25  28
ENDBRANCH  24  25
ENDBRANCH   1  24
TORSDOF 15
