REMARK  Name = DB16182
REMARK                            x       y       z     vdW  Elec       q    Type
REMARK                         _______ _______ _______ _____ _____    ______ ____
ROOT
ATOM      1  C   LIG    1        5.629  -0.627  -0.933  0.00  0.00    -0.044 A 
ATOM      2  C   LIG    1        6.391  -1.256  -1.922  0.00  0.00    +0.004 A 
ATOM      3  C   LIG    1        7.781  -1.226  -1.863  0.00  0.00    +0.013 A 
ATOM      4  C   LIG    1        8.436  -0.570  -0.813  0.00  0.00    +0.037 A 
ATOM      5  C   LIG    1        7.667   0.065   0.175  0.00  0.00    +0.013 A 
ATOM      6  C   LIG    1        6.276   0.035   0.114  0.00  0.00    +0.004 A 
ENDROOT
BRANCH   1  11
ATOM      7  N   LIG    1        1.388   0.043  -0.048  0.00  0.00    +0.382 N 
ATOM      8  H   LIG    1        1.688   0.585   0.751  0.00  0.00    -0.081 HD
ATOM      9  C   LIG    1        1.930  -1.395   0.127  0.00  0.00    -0.078 C 
ATOM     10  C   LIG    1        3.465  -1.355   0.220  0.00  0.00    -0.011 C 
ATOM     11  C   LIG    1        4.100  -0.661  -1.006  0.00  0.00    +0.016 C 
ATOM     12  C   LIG    1        3.497   0.741  -1.240  0.00  0.00    -0.011 C 
ATOM     13  C   LIG    1        1.960   0.704  -1.326  0.00  0.00    -0.078 C 
BRANCH   7  14
ATOM     14  C   LIG    1       -0.161   0.009  -0.064  0.00  0.00    -0.040 C 
BRANCH  14  20
ATOM     15  C   LIG    1       -1.844   4.530   1.487  0.00  0.00    +0.172 C 
ATOM     16  N   LIG    1       -1.452   3.378   0.696  0.00  0.00    -0.274 N 
ATOM     17  N   LIG    1       -1.654   3.386  -0.623  0.00  0.00    -0.177 NA
ATOM     18  C   LIG    1       -1.226   2.216  -1.050  0.00  0.00    +0.061 A 
ATOM     19  C   LIG    1       -1.317   1.902  -2.527  0.00  0.00    +0.068 C 
ATOM     20  C   LIG    1       -0.727   1.414   0.000  0.00  0.00    -0.024 A 
ATOM     21  C   LIG    1       -0.900   2.204   1.126  0.00  0.00    +0.110 A 
ENDBRANCH  14  20
ENDBRANCH   7  14
ENDBRANCH   1  11
BRANCH   4  22
ATOM     22  C   LIG    1        9.949  -0.546  -0.773  0.00  0.00    +0.248 C 
ATOM     23  N   LIG    1       10.503  -0.353   0.447  0.00  0.00    -0.280 N 
ATOM     24  H   LIG    1        9.873  -0.162   1.212  0.00  0.00    +0.155 HD
ATOM     25  O   LIG    1       10.600  -0.709  -1.808  0.00  0.00    -0.270 OA
BRANCH  23  26
ATOM     26  C   LIG    1       11.874  -0.285   0.771  0.00  0.00    +0.055 A 
ATOM     27  C   LIG    1       12.299   0.595   1.786  0.00  0.00    +0.046 A 
ATOM     28  C   LIG    1       13.650   0.651   2.138  0.00  0.00    +0.024 A 
ATOM     29  C   LIG    1       14.582  -0.163   1.497  0.00  0.00    +0.002 A 
ATOM     30  C   LIG    1       14.167  -1.046   0.503  0.00  0.00    +0.002 A 
ATOM     31  C   LIG    1       12.822  -1.113   0.145  0.00  0.00    +0.025 A 
BRANCH  27  32
ATOM     32  N   LIG    1       11.406   1.432   2.466  0.00  0.00    -0.357 N 
ATOM     33  H   LIG    1       10.652   1.809   1.910  0.00  0.00    +0.142 HD
ATOM     34  H   LIG    1       11.815   2.026   3.172  0.00  0.00    +0.142 HD
ENDBRANCH  27  32
ENDBRANCH  23  26
ENDBRANCH   4  22
TORSDOF 6
