REMARK  Name = DB16620
REMARK                            x       y       z     vdW  Elec       q    Type
REMARK                         _______ _______ _______ _____ _____    ______ ____
ROOT
ATOM      1  C   UNK A  0       -5.159   0.086   1.221  0.00  0.00    +0.129 C 
ATOM      2  N   UNK A  0       -4.319   0.213   0.034  0.00  0.00    -0.331 N 
ENDROOT
BRANCH   2   3
ATOM      3  C   UNK A  0       -2.925   0.050   0.223  0.00  0.00    +0.030 A 
ATOM      4  C   UNK A  0       -2.246   0.913   1.089  0.00  0.00    +0.024 A 
ATOM      5  C   UNK A  0       -0.856   0.899   1.151  0.00  0.00    +0.015 A 
ATOM      6  C   UNK A  0       -0.122   0.000   0.365  0.00  0.00    +0.037 A 
ATOM      7  C   UNK A  0       -0.803  -0.927  -0.429  0.00  0.00    +0.015 A 
ATOM      8  C   UNK A  0       -2.191  -0.895  -0.508  0.00  0.00    +0.024 A 
BRANCH   6   9
ATOM      9  C   UNK A  0        1.384   0.056   0.315  0.00  0.00    +0.245 C 
ATOM     10  N   GLU A  1        1.905   1.297   0.388  0.00  0.00    -0.298 N 
ATOM     11  H   GLU A  1        1.259   2.070   0.444  0.00  0.00    +0.150 HD
ATOM     12  O   UNK A  0        2.054  -0.962   0.132  0.00  0.00    -0.270 OA
BRANCH  10  13
ATOM     13  CA  GLU A  1        3.313   1.700   0.234  0.00  0.00    +0.182 C 
BRANCH  13  14
ATOM     14  C   GLU A  1        4.218   1.139   1.398  0.00  0.00    +0.325 C 
ATOM     15  OXT GLU A  1        5.076   0.303   1.030  0.00  0.00    -0.249 OA
BRANCH  14  16
ATOM     16  O   GLU A  1        3.976   1.567   2.552  0.00  0.00    -0.479 OA
ATOM     17  H   GLU A  1        4.485   1.267   3.280  0.00  0.00    +0.295 HD
ENDBRANCH  14  16
ENDBRANCH  13  14
BRANCH  13  18
ATOM     18  CB  GLU A  1        3.387   3.261   0.183  0.00  0.00    +0.045 C 
BRANCH  18  19
ATOM     19  CG  GLU A  1        2.426   3.963  -0.815  0.00  0.00    +0.123 C 
BRANCH  19  20
ATOM     20  CD  GLU A  1        2.554   3.567  -2.297  0.00  0.00    +0.305 C 
ATOM     21  OE2 GLU A  1        1.512   3.634  -2.988  0.00  0.00    -0.251 OA
BRANCH  20  22
ATOM     22  OE1 GLU A  1        3.677   3.235  -2.738  0.00  0.00    -0.481 OA
ATOM     23  HE1 GLU A  1        3.774   2.991  -3.637  0.00  0.00    +0.295 HD
ENDBRANCH  20  22
ENDBRANCH  19  20
ENDBRANCH  18  19
ENDBRANCH  13  18
ENDBRANCH  10  13
ENDBRANCH   6   9
ENDBRANCH   2   3
BRANCH   2  24
ATOM     24  C   UNK A  0       -4.930  -0.067  -1.276  0.00  0.00    +0.130 C 
BRANCH  24  25
ATOM     25  C   UNK A  0       -4.165   0.583  -2.433  0.00  0.00    +0.074 C 
ATOM     26  N   UNK A  0       -3.853   1.906  -2.309  0.00  0.00    -0.289 NA
ATOM     27  H   UNK A  0       -3.385   2.028  -1.411  0.00  0.00    +0.124 HD
ATOM     28  C   UNK A  0       -3.054   2.452  -3.263  0.00  0.00    +0.161 C 
ATOM     29  C   UNK A  0       -2.644   3.897  -3.074  0.00  0.00    +0.241 C 
ATOM     30  O   UNK A  0       -2.944   4.707  -2.199  0.00  0.00    -0.273 OA
ATOM     31  N   UNK A  0       -1.733   4.339  -4.150  0.00  0.00    -0.279 N 
ATOM     32  H   UNK A  0       -1.389   5.286  -4.095  0.00  0.00    +0.152 HD
ATOM     33  C   UNK A  0       -1.313   3.564  -5.176  0.00  0.00    +0.190 C 
ATOM     34  N   UNK A  0       -1.725   2.285  -5.308  0.00  0.00    -0.257 NA
ATOM     35  H   UNK A  0       -1.370   1.757  -6.092  0.00  0.00    +0.127 HD
ATOM     36  C   UNK A  0       -2.603   1.683  -4.357  0.00  0.00    +0.138 C 
ATOM     37  N   UNK A  0       -2.959   0.382  -4.512  0.00  0.00    -0.288 NA
ATOM     38  H   UNK A  0       -3.464   0.304  -5.395  0.00  0.00    +0.124 HD
ATOM     39  C   UNK A  0       -3.742  -0.162  -3.541  0.00  0.00    +0.098 C 
BRANCH  33  40
ATOM     40  N   UNK A  0       -0.477   4.072  -6.071  0.00  0.00    -0.294 NA
ATOM     41  H   UNK A  0       -0.136   3.497  -6.827  0.00  0.00    +0.122 HD
ATOM     42  H   UNK A  0       -0.130   5.014  -5.956  0.00  0.00    +0.122 HD
ENDBRANCH  33  40
ENDBRANCH  24  25
ENDBRANCH   2  24
TORSDOF 12
