REMARK  Name = DB16310
REMARK                            x       y       z     vdW  Elec       q    Type
REMARK                         _______ _______ _______ _____ _____    ______ ____
ROOT
ATOM      1  C   LIG    1       -1.250   1.413  -0.709  0.00  0.00    +0.196 C 
ATOM      2  C   LIG    1       -1.958   0.483  -1.736  0.00  0.00    +0.209 C 
ATOM      3  N   LIG    1       -3.027  -0.199  -1.572  0.00  0.00    -0.238 NA
ATOM      4  C   LIG    1       -3.791  -0.242  -0.302  0.00  0.00    +0.222 C 
ATOM      5  C   LIG    1       -4.118  -1.736   0.005  0.00  0.00    +0.243 C 
ATOM      6  O   LIG    1       -5.127  -2.224  -0.512  0.00  0.00    -0.273 OA
ATOM      7  N   LIG    1       -3.312  -2.468   0.826  0.00  0.00    -0.285 N 
ATOM      8  C   LIG    1       -2.068  -2.044   1.530  0.00  0.00    +0.164 C 
ATOM      9  C   LIG    1       -0.792  -2.454   0.705  0.00  0.00    +0.205 C 
ATOM     10  N   LIG    1        0.421  -2.576   1.102  0.00  0.00    -0.238 NA
ATOM     11  C   LIG    1        0.923  -2.249   2.441  0.00  0.00    +0.224 C 
ATOM     12  C   LIG    1        2.172  -1.333   2.295  0.00  0.00    +0.211 C 
ATOM     13  N   LIG    1        2.459  -0.291   2.979  0.00  0.00    -0.237 NA
ATOM     14  C   LIG    1        1.540   0.268   4.009  0.00  0.00    +0.222 C 
ATOM     15  C   LIG    1        0.482   1.229   3.383  0.00  0.00    +0.243 C 
ATOM     16  O   LIG    1        0.832   1.929   2.433  0.00  0.00    -0.273 OA
ATOM     17  N   LIG    1       -0.773   1.284   3.906  0.00  0.00    -0.285 N 
ATOM     18  C   LIG    1       -1.861   2.144   3.367  0.00  0.00    +0.190 C 
ATOM     19  C   LIG    1       -1.574   3.659   3.574  0.00  0.00    +0.209 C 
ATOM     20  N   LIG    1       -1.704   4.585   2.698  0.00  0.00    -0.219 NA
ATOM     21  C   LIG    1       -2.321   4.370   1.385  0.00  0.00    +0.266 C 
ATOM     22  C   LIG    1       -1.276   3.818   0.355  0.00  0.00    +0.168 C 
ATOM     23  C   LIG    1       -3.126   1.598   4.065  0.00  0.00    +0.148 C 
ATOM     24  C   LIG    1       -2.593   1.032   5.384  0.00  0.00    +0.034 C 
ATOM     25  C   LIG    1       -3.514   0.040   6.119  0.00  0.00    +0.012 C 
ATOM     26  C   LIG    1       -1.236   0.433   5.011  0.00  0.00    +0.114 C 
ATOM     27  C   LIG    1       -2.324  -2.762   2.872  0.00  0.00    +0.065 C 
ATOM     28  C   LIG    1       -2.930  -4.106   2.501  0.00  0.00    +0.134 C 
ATOM     29  C   LIG    1       -3.765  -3.804   1.258  0.00  0.00    +0.140 C 
ATOM     30  C   LIG    1       -1.818   2.874  -0.762  0.00  0.00    +0.072 C 
ENDROOT
BRANCH   1  32
ATOM     31  C   LIG    1        1.025   1.936  -1.495  0.00  0.00    +0.216 C 
ATOM     32  N   LIG    1        0.218   1.265  -0.752  0.00  0.00    -0.237 NA
BRANCH  31  36
ATOM     33  C   LIG    1        5.282   1.306  -1.264  0.00  0.00    -0.018 A 
ATOM     34  C   LIG    1        4.690   1.734  -2.456  0.00  0.00    +0.009 A 
ATOM     35  C   LIG    1        3.316   1.943  -2.535  0.00  0.00    +0.014 A 
ATOM     36  C   LIG    1        2.488   1.729  -1.422  0.00  0.00    +0.036 A 
ATOM     37  C   LIG    1        3.090   1.305  -0.229  0.00  0.00    +0.014 A 
ATOM     38  C   LIG    1        4.463   1.097  -0.149  0.00  0.00    +0.009 A 
BRANCH  33  42
ATOM     39  C   LIG    1        9.539   0.631  -1.040  0.00  0.00    -0.018 A 
ATOM     40  C   LIG    1        8.804   0.227  -2.162  0.00  0.00    +0.009 A 
ATOM     41  C   LIG    1        7.431   0.444  -2.233  0.00  0.00    +0.009 A 
ATOM     42  C   LIG    1        6.752   1.072  -1.184  0.00  0.00    -0.018 A 
ATOM     43  C   LIG    1        7.482   1.475  -0.061  0.00  0.00    +0.009 A 
ATOM     44  C   LIG    1        8.855   1.258   0.010  0.00  0.00    +0.009 A 
BRANCH  39  48
ATOM     45  C   LIG    1       13.799  -0.033  -0.846  0.00  0.00    +0.121 A 
ATOM     46  C   LIG    1       13.228   1.091  -0.232  0.00  0.00    +0.046 A 
ATOM     47  C   LIG    1       11.853   1.301  -0.295  0.00  0.00    +0.012 A 
ATOM     48  C   LIG    1       11.016   0.400  -0.968  0.00  0.00    -0.018 A 
ATOM     49  C   LIG    1       11.598  -0.721  -1.574  0.00  0.00    +0.012 A 
ATOM     50  C   LIG    1       12.972  -0.933  -1.514  0.00  0.00    +0.046 A 
BRANCH  45  51
ATOM     51  O   LIG    1       15.149  -0.323  -0.842  0.00  0.00    -0.492 OA
BRANCH  51  52
ATOM     52  C   LIG    1       16.053   0.548  -0.168  0.00  0.00    +0.229 C 
BRANCH  52  53
ATOM     53  C   LIG    1       17.486   0.014  -0.320  0.00  0.00    +0.041 C 
BRANCH  53  54
ATOM     54  C   LIG    1       17.695  -1.378   0.307  0.00  0.00    +0.003 C 
BRANCH  54  56
ATOM     55  C   LIG    1       19.334  -3.295   0.751  0.00  0.00    +0.004 C 
ATOM     56  C   LIG    1       19.131  -1.904   0.136  0.00  0.00    -0.003 C 
ENDBRANCH  54  56
ENDBRANCH  53  54
ENDBRANCH  52  53
ENDBRANCH  51  52
ENDBRANCH  45  51
ENDBRANCH  39  48
ENDBRANCH  33  42
ENDBRANCH  31  36
BRANCH  31  57
ATOM     57  O   LIG    1        0.624   2.854  -2.440  0.00  0.00    -0.492 OA
ATOM     58  H   LIG    1        1.392   3.247  -2.860  0.00  0.00    +0.294 HD
ENDBRANCH  31  57
ENDBRANCH   1  32
BRANCH   2  59
ATOM     59  O   LIG    1       -1.375   0.460  -2.978  0.00  0.00    -0.494 OA
ATOM     60  H   LIG    1       -1.875  -0.117  -3.559  0.00  0.00    +0.293 HD
ENDBRANCH   2  59
BRANCH   9  61
ATOM     61  O   LIG    1       -1.024  -2.712  -0.624  0.00  0.00    -0.494 OA
ATOM     62  H   LIG    1       -0.200  -2.943  -1.058  0.00  0.00    +0.293 HD
ENDBRANCH   9  61
BRANCH  12  63
ATOM     63  O   LIG    1        3.085  -1.764   1.362  0.00  0.00    -0.494 OA
ATOM     64  H   LIG    1        3.829  -1.160   1.336  0.00  0.00    +0.293 HD
ENDBRANCH  12  63
BRANCH  19  65
ATOM     65  O   LIG    1       -1.129   3.985   4.832  0.00  0.00    -0.494 OA
ATOM     66  H   LIG    1       -0.952   4.928   4.878  0.00  0.00    +0.293 HD
ENDBRANCH  19  65
BRANCH  22  67
ATOM     67  O   LIG    1       -0.614   4.912  -0.256  0.00  0.00    -0.387 OA
ATOM     68  H   LIG    1       -0.197   5.437   0.433  0.00  0.00    +0.210 HD
ENDBRANCH  22  67
BRANCH  23  69
ATOM     69  O   LIG    1       -3.736   0.614   3.248  0.00  0.00    -0.389 OA
ATOM     70  H   LIG    1       -3.089  -0.070   3.064  0.00  0.00    +0.210 HD
ENDBRANCH  23  69
BRANCH  14  71
ATOM     71  C   LIG    1        2.333   1.079   5.085  0.00  0.00    +0.145 C 
ATOM     72  C   LIG    1        3.257   0.190   5.936  0.00  0.00    +0.040 C 
BRANCH  71  73
ATOM     73  O   LIG    1        3.129   2.114   4.528  0.00  0.00    -0.389 OA
ATOM     74  H   LIG    1        3.782   1.714   3.948  0.00  0.00    +0.210 HD
ENDBRANCH  71  73
ENDBRANCH  14  71
BRANCH  28  75
ATOM     75  O   LIG    1       -3.612  -4.734   3.566  0.00  0.00    -0.390 OA
ATOM     76  H   LIG    1       -4.097  -5.486   3.218  0.00  0.00    +0.210 HD
ENDBRANCH  28  75
BRANCH   4  77
ATOM     77  C   LIG    1       -5.110   0.615  -0.411  0.00  0.00    +0.145 C 
ATOM     78  C   LIG    1       -5.902   0.531  -1.735  0.00  0.00    +0.040 C 
BRANCH  77  79
ATOM     79  O   LIG    1       -6.017   0.384   0.655  0.00  0.00    -0.389 OA
ATOM     80  H   LIG    1       -6.355  -0.512   0.571  0.00  0.00    +0.210 HD
ENDBRANCH  77  79
ENDBRANCH   4  77
BRANCH  21  81
ATOM     81  O   LIG    1       -3.519   3.583   1.473  0.00  0.00    -0.354 OA
BRANCH  81  82
ATOM     82  C   LIG    1       -4.639   4.246   2.063  0.00  0.00    +0.144 C 
BRANCH  82  83
ATOM     83  C   LIG    1       -5.846   3.291   2.023  0.00  0.00    -0.048 C 
BRANCH  83  84
ATOM     84  N   LIG    1       -7.045   3.730   2.914  0.00  0.00    +0.376 N 
ATOM     85  C   LIG    1       -6.692   3.654   4.420  0.00  0.00    -0.093 C 
ATOM     86  C   LIG    1       -7.516   5.161   2.564  0.00  0.00    -0.093 C 
ATOM     87  C   LIG    1       -8.216   2.752   2.648  0.00  0.00    -0.093 C 
ENDBRANCH  83  84
ENDBRANCH  82  83
ENDBRANCH  81  82
ENDBRANCH  21  81
BRANCH  11  88
ATOM     88  C   LIG    1        1.341  -3.566   3.200  0.00  0.00    +0.181 C 
BRANCH  88  89
ATOM     89  O   LIG    1        0.379  -4.602   3.066  0.00  0.00    -0.386 OA
ATOM     90  H   LIG    1        0.225  -4.750   2.130  0.00  0.00    +0.210 HD
ENDBRANCH  88  89
BRANCH  88  91
ATOM     91  C   LIG    1        1.685  -3.386   4.713  0.00  0.00    +0.176 C 
BRANCH  91  92
ATOM     92  C   LIG    1        2.307  -4.645   5.329  0.00  0.00    -0.016 A 
ATOM     93  C   LIG    1        3.676  -4.878   5.161  0.00  0.00    +0.010 A 
ATOM     94  C   LIG    1        4.265  -6.019   5.701  0.00  0.00    +0.046 A 
ATOM     95  C   LIG    1        3.484  -6.931   6.410  0.00  0.00    +0.117 A 
ATOM     96  C   LIG    1        2.119  -6.709   6.580  0.00  0.00    +0.046 A 
ATOM     97  C   LIG    1        1.530  -5.569   6.040  0.00  0.00    +0.010 A 
BRANCH  95  98
ATOM     98  O   LIG    1        4.060  -8.054   6.941  0.00  0.00    -0.507 OA
ATOM     99  H   LIG    1        5.002  -8.111   6.766  0.00  0.00    +0.292 HD
ENDBRANCH  95  98
ENDBRANCH  91  92
BRANCH  91 100
ATOM    100  O   LIG    1        0.559  -2.908   5.434  0.00  0.00    -0.385 OA
ATOM    101  H   LIG    1        0.836  -2.710   6.332  0.00  0.00    +0.210 HD
ENDBRANCH  91 100
ENDBRANCH  88  91
ENDBRANCH  11  88
TORSDOF 31
