REMARK  Name = DB16097
REMARK                            x       y       z     vdW  Elec       q    Type
REMARK                         _______ _______ _______ _____ _____    ______ ____
ROOT
ATOM      1  C   LIG    1       -2.603  -1.560  -0.108  0.00  0.00    +0.036 C 
ATOM      2  C   LIG    1       -4.160  -1.583  -0.085  0.00  0.00    +0.036 C 
ATOM      3  C   LIG    1       -4.750  -2.445   1.053  0.00  0.00    +0.012 C 
ATOM      4  C   LIG    1       -4.690  -0.127  -0.101  0.00  0.00    +0.195 C 
ATOM      5  O   LIG    1       -4.162   0.564  -1.204  0.00  0.00    -0.330 OA
ATOM      6  C   LIG    1       -2.765   0.712  -1.214  0.00  0.00    +0.291 C 
ATOM      7  O   LIG    1       -2.503   1.551  -2.308  0.00  0.00    -0.314 OA
ATOM      8  C   LIG    1       -1.947   0.945  -3.478  0.00  0.00    +0.203 C 
ATOM      9  O   LIG    1       -2.466  -0.370  -3.726  0.00  0.00    -0.199 OA
ATOM     10  O   LIG    1       -2.499  -1.277  -2.539  0.00  0.00    -0.220 OA
ATOM     11  C   LIG    1       -2.449   1.819  -4.642  0.00  0.00    +0.077 C 
ATOM     12  C   LIG    1       -0.405   0.949  -3.315  0.00  0.00    +0.068 C 
ATOM     13  C   LIG    1        0.199  -0.263  -2.593  0.00  0.00    +0.012 C 
ATOM     14  C   LIG    1       -0.503  -0.716  -1.281  0.00  0.00    +0.032 C 
ATOM     15  C   LIG    1        0.066  -0.131   0.049  0.00  0.00    -0.008 C 
ATOM     16  C   LIG    1        1.602   0.005   0.108  0.00  0.00    +0.008 C 
ATOM     17  C   LIG    1       -0.441  -1.017   1.212  0.00  0.00    +0.004 C 
ATOM     18  C   LIG    1       -2.079  -0.687  -1.298  0.00  0.00    +0.161 C 
ATOM     19  C   LIG    1       -1.976  -1.101   1.248  0.00  0.00    +0.007 C 
ENDROOT
BRANCH   4  20
ATOM     20  N   LIG    1       -6.152  -0.021  -0.144  0.00  0.00    -0.274 NA
ATOM     21  C   LIG    1       -6.808  -0.536  -1.361  0.00  0.00    +0.109 C 
ATOM     22  C   LIG    1       -8.304  -0.832  -1.163  0.00  0.00    +0.181 C 
ATOM     23  S   LIG    1       -9.184   0.765  -0.721  0.00  0.00    -0.029 S 
ATOM     24  O   LIG    1       -8.997   1.736  -1.805  0.00  0.00    -0.174 OA
ATOM     25  O   LIG    1      -10.541   0.461  -0.257  0.00  0.00    -0.174 OA
ATOM     26  C   LIG    1       -8.123   1.262   0.744  0.00  0.00    +0.181 C 
ATOM     27  C   LIG    1       -6.649   1.291   0.304  0.00  0.00    +0.109 C 
ENDBRANCH   4  20
TORSDOF 1
