REMARK  Name = DB16176
REMARK                            x       y       z     vdW  Elec       q    Type
REMARK                         _______ _______ _______ _____ _____    ______ ____
ROOT
ATOM      1  C   PHE A  1       -0.859   1.125  -0.181  0.00  0.00    +0.199 C 
ATOM      2  N   GLU A  2        0.006   0.115   0.007  0.00  0.00    -0.305 N 
ATOM      3  H   GLU A  2       -0.348  -0.814   0.183  0.00  0.00    +0.149 HD
ATOM      4  O   PHE A  1       -0.520   2.297  -0.377  0.00  0.00    -0.278 OA
ENDROOT
BRANCH   1   5
ATOM      5  CA  PHE A  1       -2.354   0.728  -0.106  0.00  0.00    +0.013 C 
BRANCH   5   6
ATOM      6  N   PHE A  1       -2.995   1.300  -1.340  0.00  0.00    +0.386 N 
ATOM      7  H1  PHE A  1       -3.996   1.178  -1.280  0.00  0.00    -0.089 HD
ATOM      8  H2  PHE A  1       -2.774   2.284  -1.394  0.00  0.00    -0.089 HD
ATOM      9  H3  PHE A  1       -2.637   0.819  -2.153  0.00  0.00    -0.089 HD
ENDBRANCH   5   6
BRANCH   5  10
ATOM     10  CB  PHE A  1       -3.042   1.186   1.208  0.00  0.00    -0.004 C 
BRANCH  10  11
ATOM     11  CG  PHE A  1       -2.426   0.653   2.531  0.00  0.00    -0.012 C 
ATOM     12  CD2 PHE A  1       -3.178   1.216   3.760  0.00  0.00    +0.003 C 
ATOM     13  CE2 PHE A  1       -2.517   0.771   5.081  0.00  0.00    +0.000 C 
ATOM     14  CZ  PHE A  1       -2.411  -0.766   5.170  0.00  0.00    +0.000 C 
ATOM     15  CE1 PHE A  1       -1.746  -1.382   3.921  0.00  0.00    +0.000 C 
ATOM     16  CD1 PHE A  1       -2.413  -0.893   2.618  0.00  0.00    +0.003 C 
ENDBRANCH  10  11
ENDBRANCH   5  10
ENDBRANCH   1   5
BRANCH   2  17
ATOM     17  CA  GLU A  2        1.464   0.236   0.023  0.00  0.00    +0.159 C 
BRANCH  17  18
ATOM     18  C   GLU A  2        2.003  -0.113   1.418  0.00  0.00    +0.234 C 
ATOM     19  N   GLY A  3        3.181   0.447   1.744  0.00  0.00    -0.303 N 
ATOM     20  H   GLY A  3        3.624   1.069   1.084  0.00  0.00    +0.149 HD
ATOM     21  O   GLU A  2        1.370  -0.872   2.154  0.00  0.00    -0.274 OA
BRANCH  19  22
ATOM     22  CA  GLY A  3        3.877   0.256   3.027  0.00  0.00    +0.224 C 
BRANCH  22  23
ATOM     23  C   GLY A  3        4.690  -1.061   3.145  0.00  0.00    +0.322 C 
ATOM     24  OXT GLY A  3        5.095  -1.351   4.293  0.00  0.00    -0.249 OA
BRANCH  23  25
ATOM     25  O   GLY A  3        4.933  -1.751   2.126  0.00  0.00    -0.480 OA
ATOM     26  H   GLY A  3        5.424  -2.545   2.204  0.00  0.00    +0.295 HD
ENDBRANCH  23  25
ENDBRANCH  22  23
ENDBRANCH  19  22
ENDBRANCH  17  18
BRANCH  17  27
ATOM     27  CB  GLU A  2        2.061  -0.707  -1.045  0.00  0.00    +0.043 C 
BRANCH  27  28
ATOM     28  CG  GLU A  2        1.630  -0.348  -2.487  0.00  0.00    +0.123 C 
BRANCH  28  29
ATOM     29  CD  GLU A  2        2.199  -1.244  -3.602  0.00  0.00    +0.305 C 
ATOM     30  OE2 GLU A  2        1.866  -0.946  -4.770  0.00  0.00    -0.251 OA
BRANCH  29  31
ATOM     31  OE1 GLU A  2        2.939  -2.207  -3.298  0.00  0.00    -0.481 OA
ATOM     32  HE1 GLU A  2        3.290  -2.758  -3.970  0.00  0.00    +0.295 HD
ENDBRANCH  29  31
ENDBRANCH  28  29
ENDBRANCH  27  28
ENDBRANCH  17  27
ENDBRANCH   2  17
TORSDOF 13
