REMARK  Name = DB16660
REMARK                            x       y       z     vdW  Elec       q    Type
REMARK                         _______ _______ _______ _____ _____    ______ ____
ROOT
ATOM      1  C   LIG    1        2.155   1.110  -0.655  0.00  0.00    +0.130 A 
ATOM      2  N   LIG    1        1.603   1.898  -1.614  0.00  0.00    -0.217 NA
ATOM      3  C   LIG    1        2.399   2.640  -2.422  0.00  0.00    +0.128 A 
ATOM      4  C   LIG    1        3.788   2.636  -2.299  0.00  0.00    +0.072 A 
ATOM      5  C   LIG    1        4.394   1.832  -1.303  0.00  0.00    +0.077 A 
ATOM      6  N   LIG    1        5.752   1.837  -1.193  0.00  0.00    -0.255 NA
ATOM      7  C   LIG    1        6.323   1.064  -0.237  0.00  0.00    +0.111 A 
ATOM      8  C   LIG    1        5.597   0.265   0.641  0.00  0.00    +0.020 A 
ATOM      9  C   LIG    1        4.208   0.248   0.543  0.00  0.00    +0.015 A 
ATOM     10  C   LIG    1        3.563   1.043  -0.448  0.00  0.00    +0.040 A 
ENDROOT
BRANCH   1  11
ATOM     11  N   LIG    1        1.288   0.359   0.168  0.00  0.00    -0.326 N 
ATOM     12  H   LIG    1        1.715  -0.466   0.563  0.00  0.00    +0.148 HD
BRANCH  11  19
ATOM     13  N   LIG    1       -2.050  -2.033  -0.104  0.00  0.00    +0.384 N 
ATOM     14  H   LIG    1       -1.201  -2.512   0.162  0.00  0.00    -0.081 HD
ATOM     15  C   LIG    1       -1.795  -1.282  -1.427  0.00  0.00    -0.066 C 
ATOM     16  C   LIG    1       -2.889  -0.196  -1.432  0.00  0.00    -0.017 C 
ATOM     17  C   LIG    1       -3.200   0.089   0.046  0.00  0.00    -0.017 C 
ATOM     18  C   LIG    1       -0.352  -0.720  -1.340  0.00  0.00    +0.007 C 
ATOM     19  C   LIG    1       -0.143   0.235  -0.128  0.00  0.00    +0.069 C 
ATOM     20  C   LIG    1       -0.877  -0.249   1.152  0.00  0.00    +0.007 C 
ATOM     21  C   LIG    1       -2.279  -0.846   0.856  0.00  0.00    -0.066 C 
BRANCH  13  22
ATOM     22  C   LIG    1       -3.187  -3.080  -0.167  0.00  0.00    -0.063 C 
BRANCH  22  23
ATOM     23  C   LIG    1       -3.237  -3.881   1.143  0.00  0.00    +0.100 C 
BRANCH  23  24
ATOM     24  C   LIG    1       -4.143  -5.036   1.050  0.00  0.00    +0.061 C 
ATOM     25  N   LIG    1       -4.855  -5.945   0.977  0.00  0.00    -0.197 NA
ENDBRANCH  23  24
ENDBRANCH  22  23
ENDBRANCH  13  22
ENDBRANCH  11  19
ENDBRANCH   1  11
BRANCH   3  26
ATOM     26  N   LIG    1        1.835   3.443  -3.429  0.00  0.00    -0.283 N 
ATOM     27  H   LIG    1        2.540   3.941  -3.953  0.00  0.00    +0.155 HD
BRANCH  26  28
ATOM     28  C   LIG    1        0.515   3.623  -3.780  0.00  0.00    +0.146 A 
ATOM     29  C   LIG    1       -0.671   3.096  -3.232  0.00  0.00    +0.068 A 
ATOM     30  C   LIG    1       -1.721   3.607  -3.974  0.00  0.00    +0.035 A 
ATOM     31  C   LIG    1       -3.219   3.438  -3.905  0.00  0.00    +0.065 C 
ATOM     32  N   LIG    1       -1.099   4.394  -4.902  0.00  0.00    -0.280 N 
ATOM     33  H   LIG    1       -1.581   4.925  -5.614  0.00  0.00    +0.189 HD
ATOM     34  N   LIG    1        0.233   4.412  -4.793  0.00  0.00    -0.158 NA
ENDBRANCH  26  28
ENDBRANCH   3  26
TORSDOF 7
