REMARK  Name = DB16243
REMARK                            x       y       z     vdW  Elec       q    Type
REMARK                         _______ _______ _______ _____ _____    ______ ____
ROOT
ATOM      1  N   LIG    1        1.487   0.082  -0.485  0.00  0.00    -0.339 N 
ATOM      2  C   LIG    1        2.232  -0.298   0.616  0.00  0.00    +0.069 A 
ATOM      3  C   LIG    1        1.864  -0.697   1.909  0.00  0.00    +0.032 A 
ATOM      4  C   LIG    1        2.908  -1.033   2.775  0.00  0.00    -0.030 A 
ATOM      5  C   LIG    1        2.612  -1.486   4.192  0.00  0.00    +0.045 C 
ATOM      6  C   LIG    1        4.227  -0.968   2.323  0.00  0.00    +0.115 A 
ATOM      7  N   LIG    1        4.588  -0.575   1.074  0.00  0.00    -0.252 NA
ATOM      8  C   LIG    1        3.607  -0.235   0.227  0.00  0.00    +0.101 A 
ATOM      9  C   LIG    1        3.681   0.252  -1.127  0.00  0.00    +0.080 A 
ATOM     10  C   LIG    1        2.351   0.404  -1.507  0.00  0.00    +0.102 A 
ENDROOT
BRANCH   9  11
ATOM     11  C   LIG    1        4.821   0.438  -1.988  0.00  0.00    +0.248 C 
ATOM     12  N   LIG    1        4.651   1.359  -2.955  0.00  0.00    -0.309 N 
ATOM     13  H   LIG    1        3.783   1.873  -2.981  0.00  0.00    +0.149 HD
ATOM     14  O   LIG    1        5.859  -0.202  -1.815  0.00  0.00    -0.270 OA
BRANCH  12  15
ATOM     15  C   LIG    1        5.656   1.731  -3.953  0.00  0.00    +0.132 C 
BRANCH  15  16
ATOM     16  C   LIG    1        5.524   0.987  -5.296  0.00  0.00    +0.174 C 
BRANCH  16  17
ATOM     17  O   LIG    1        5.676  -0.409  -5.142  0.00  0.00    -0.393 OA
ATOM     18  H   LIG    1        5.557  -0.828  -5.997  0.00  0.00    +0.209 HD
ENDBRANCH  16  17
ENDBRANCH  15  16
ENDBRANCH  12  15
ENDBRANCH   9  11
BRANCH   1  19
ATOM     19  C   LIG    1        0.029   0.211  -0.543  0.00  0.00    +0.177 C 
BRANCH  19  24
ATOM     20  C   LIG    1       -2.436   2.891   0.647  0.00  0.00    +0.221 A 
ATOM     21  N   LIG    1       -1.584   3.779   1.240  0.00  0.00    -0.201 NA
ATOM     22  C   LIG    1       -0.267   3.463   1.222  0.00  0.00    +0.225 A 
ATOM     23  N   LIG    1        0.278   2.353   0.671  0.00  0.00    -0.238 NA
ATOM     24  C   LIG    1       -0.581   1.472   0.085  0.00  0.00    +0.071 A 
ATOM     25  C   LIG    1       -1.970   1.706   0.049  0.00  0.00    +0.034 A 
ATOM     26  C   LIG    1       -2.929   0.716  -0.606  0.00  0.00    +0.051 C 
BRANCH  20  28
ATOM     27  C   LIG    1       -4.271   4.377   1.235  0.00  0.00    +0.279 C 
ATOM     28  O   LIG    1       -3.792   3.174   0.635  0.00  0.00    -0.479 OA
ENDBRANCH  20  28
ENDBRANCH  19  24
ENDBRANCH   1  19
TORSDOF 7
