REMARK  Name = DB16870
REMARK                            x       y       z     vdW  Elec       q    Type
REMARK                         _______ _______ _______ _____ _____    ______ ____
ROOT
ATOM      1  C   LIG    1       -2.114  -0.771   1.285  0.00  0.00    +0.005 C 
ATOM      2  C   LIG    1       -0.570  -0.903   1.185  0.00  0.00    +0.014 C 
ATOM      3  C   LIG    1        0.076  -0.168  -0.022  0.00  0.00    +0.027 C 
ATOM      4  C   LIG    1        1.609  -0.354  -0.092  0.00  0.00    +0.019 C 
ATOM      5  C   LIG    1       -0.287   1.335   0.017  0.00  0.00    +0.140 C 
ATOM      6  O   LIG    1        0.353   2.237   0.556  0.00  0.00    -0.297 OA
ATOM      7  C   LIG    1       -1.569   1.516  -0.809  0.00  0.00    +0.082 C 
ATOM      8  C   LIG    1       -2.004   0.082  -1.198  0.00  0.00    -0.018 C 
ATOM      9  C   LIG    1       -2.727   0.011  -2.566  0.00  0.00    +0.008 C 
ATOM     10  C   LIG    1       -4.205   0.422  -2.501  0.00  0.00    +0.006 C 
ATOM     11  C   LIG    1       -5.008  -0.418  -1.457  0.00  0.00    +0.012 C 
ATOM     12  C   LIG    1       -6.602  -0.375  -1.558  0.00  0.00    +0.068 C 
ATOM     13  C   LIG    1       -7.059  -0.889  -2.955  0.00  0.00    +0.023 C 
ATOM     14  C   LIG    1       -7.155  -1.408  -0.512  0.00  0.00    +0.018 C 
ATOM     15  C   LIG    1       -6.651  -1.194   0.927  0.00  0.00    +0.002 C 
ATOM     16  C   LIG    1       -5.113  -1.224   0.972  0.00  0.00    +0.007 C 
ATOM     17  C   LIG    1       -4.398  -0.232  -0.003  0.00  0.00    -0.025 C 
ATOM     18  C   LIG    1       -4.589   1.221   0.528  0.00  0.00    +0.012 C 
ATOM     19  C   LIG    1       -0.636  -0.609  -1.306  0.00  0.00    +0.021 C 
ATOM     20  C   LIG    1       -2.863  -0.637  -0.084  0.00  0.00    +0.002 C 
ENDROOT
BRANCH  12  21
ATOM     21  C   LIG    1       -7.207   1.073  -1.343  0.00  0.00    +0.311 C 
ATOM     22  O   LIG    1       -8.135   1.250  -0.518  0.00  0.00    -0.250 OA
BRANCH  21  23
ATOM     23  O   LIG    1       -6.796   2.008  -2.068  0.00  0.00    -0.480 OA
ATOM     24  H   LIG    1       -6.102   1.857  -2.679  0.00  0.00    +0.295 HD
ENDBRANCH  21  23
ENDBRANCH  12  21
TORSDOF 2
