REMARK  Name = DB16291
REMARK                            x       y       z     vdW  Elec       q    Type
REMARK                         _______ _______ _______ _____ _____    ______ ____
ROOT
ATOM      1  C   LIG    1        3.652  -1.187   0.039  0.00  0.00    -0.072 C 
ATOM      2  C   LIG    1        4.427  -0.728  -0.970  0.00  0.00    -0.001 C 
ATOM      3  C   LIG    1        4.179  -1.796   1.335  0.00  0.00    +0.039 C 
ENDROOT
BRANCH   2   4
ATOM      4  C   LIG    1        5.880  -0.700  -1.006  0.00  0.00    +0.000 C 
ATOM      5  C   LIG    1        6.572  -0.253  -2.073  0.00  0.00    +0.003 C 
BRANCH   5   6
ATOM      6  C   LIG    1        8.026  -0.194  -2.173  0.00  0.00    -0.044 C 
ATOM      7  C   LIG    1        8.779  -1.215  -1.684  0.00  0.00    +0.094 C 
ATOM      8  C   LIG    1        8.624   1.074  -2.774  0.00  0.00    +0.044 C 
BRANCH   7   9
ATOM      9  C   LIG    1       10.320  -1.346  -1.696  0.00  0.00    +0.330 C 
ATOM     10  O   LIG    1       10.800  -1.751  -0.614  0.00  0.00    -0.246 OA
BRANCH   9  11
ATOM     11  O   LIG    1       10.882  -1.124  -2.793  0.00  0.00    -0.478 OA
ATOM     12  H   LIG    1       11.815  -1.187  -2.862  0.00  0.00    +0.295 HD
ENDBRANCH   9  11
ENDBRANCH   7   9
ENDBRANCH   5   6
ENDBRANCH   2   4
BRANCH   1  13
ATOM     13  C   LIG    1        2.130  -1.145  -0.065  0.00  0.00    +0.034 C 
BRANCH  13  14
ATOM     14  C   LIG    1        1.456  -0.173   0.919  0.00  0.00    +0.031 C 
BRANCH  14  16
ATOM     15  C   LIG    1       -0.771   0.893   0.170  0.00  0.00    -0.076 C 
ATOM     16  C   LIG    1       -0.053  -0.096   0.748  0.00  0.00    -0.028 C 
ATOM     17  C   LIG    1       -0.164   2.128  -0.485  0.00  0.00    +0.039 C 
BRANCH  15  18
ATOM     18  C   LIG    1       -2.294   0.821   0.102  0.00  0.00    +0.034 C 
BRANCH  18  19
ATOM     19  C   LIG    1       -3.020   1.738   1.104  0.00  0.00    +0.031 C 
BRANCH  19  22
ATOM     20  C   LIG    1       -2.067   1.329   4.930  0.00  0.00    +0.038 C 
ATOM     21  C   LIG    1       -2.107   1.892   3.519  0.00  0.00    -0.080 C 
ATOM     22  C   LIG    1       -2.853   1.309   2.556  0.00  0.00    -0.028 C 
ATOM     23  C   LIG    1       -1.239   3.127   3.322  0.00  0.00    +0.038 C 
ENDBRANCH  19  22
ENDBRANCH  18  19
ENDBRANCH  15  18
ENDBRANCH  14  16
ENDBRANCH  13  14
ENDBRANCH   1  13
TORSDOF 10
