REMARK  Name = DB16120
REMARK                            x       y       z     vdW  Elec       q    Type
REMARK                         _______ _______ _______ _____ _____    ______ ____
ROOT
ATOM      1  C   LIG    1       -4.974  -1.718  -0.641  0.00  0.00    +0.124 A 
ATOM      2  C   LIG    1       -4.480  -1.829  -1.939  0.00  0.00    +0.091 A 
ATOM      3  C   LIG    1       -3.146  -1.520  -2.211  0.00  0.00    +0.127 A 
ATOM      4  C   LIG    1       -2.282  -1.094  -1.189  0.00  0.00    +0.039 A 
ATOM      5  C   LIG    1       -0.808  -0.775  -1.440  0.00  0.00    +0.091 C 
ATOM      6  C   LIG    1       -0.199   0.022  -0.267  0.00  0.00    +0.226 C 
ATOM      7  C   LIG    1       -0.653  -0.613   1.070  0.00  0.00    +0.244 C 
ATOM      8  O   LIG    1       -2.075  -0.505   1.188  0.00  0.00    -0.480 OA
ATOM      9  C   LIG    1       -2.803  -0.992   0.117  0.00  0.00    +0.132 A 
ATOM     10  C   LIG    1       -4.137  -1.295   0.388  0.00  0.00    +0.091 A 
ENDROOT
BRANCH   7  11
ATOM     11  C   LIG    1        0.028   0.016   2.285  0.00  0.00    -0.000 A 
ATOM     12  C   LIG    1        1.038  -0.672   2.966  0.00  0.00    +0.011 A 
ATOM     13  C   LIG    1        1.679  -0.085   4.056  0.00  0.00    +0.049 A 
ATOM     14  C   LIG    1        1.317   1.196   4.477  0.00  0.00    +0.158 A 
ATOM     15  C   LIG    1        0.306   1.892   3.801  0.00  0.00    +0.159 A 
ATOM     16  C   LIG    1       -0.332   1.300   2.709  0.00  0.00    +0.056 A 
BRANCH  14  17
ATOM     17  O   LIG    1        1.963   1.752   5.552  0.00  0.00    -0.503 OA
ATOM     18  H   LIG    1        2.631   1.176   5.929  0.00  0.00    +0.292 HD
ENDBRANCH  14  17
BRANCH  15  19
ATOM     19  O   LIG    1       -0.070   3.152   4.191  0.00  0.00    -0.503 OA
ATOM     20  H   LIG    1       -0.776   3.518   3.653  0.00  0.00    +0.292 HD
ENDBRANCH  15  19
ENDBRANCH   7  11
BRANCH   1  21
ATOM     21  O   LIG    1       -6.284  -2.017  -0.378  0.00  0.00    -0.507 OA
ATOM     22  H   LIG    1       -6.767  -2.295  -1.159  0.00  0.00    +0.292 HD
ENDBRANCH   1  21
BRANCH   3  23
ATOM     23  O   LIG    1       -2.692  -1.650  -3.498  0.00  0.00    -0.506 OA
ATOM     24  H   LIG    1       -3.373  -1.951  -4.104  0.00  0.00    +0.292 HD
ENDBRANCH   3  23
BRANCH   6  25
ATOM     25  O   LIG    1        1.227   0.091  -0.334  0.00  0.00    -0.453 OA
BRANCH  25  26
ATOM     26  C   LIG    1        1.879   0.958  -1.152  0.00  0.00    +0.340 C 
ATOM     27  O   LIG    1        1.306   1.718  -1.938  0.00  0.00    -0.245 OA
BRANCH  26  28
ATOM     28  C   LIG    1        3.371   0.890  -1.008  0.00  0.00    +0.066 A 
ATOM     29  C   LIG    1        4.183   1.666  -1.848  0.00  0.00    +0.064 A 
ATOM     30  C   LIG    1        5.574   1.634  -1.734  0.00  0.00    +0.163 A 
ATOM     31  C   LIG    1        6.179   0.820  -0.769  0.00  0.00    +0.201 A 
ATOM     32  C   LIG    1        5.381   0.042   0.078  0.00  0.00    +0.163 A 
ATOM     33  C   LIG    1        3.991   0.079  -0.042  0.00  0.00    +0.064 A 
BRANCH  30  34
ATOM     34  O   LIG    1        6.328   2.410  -2.579  0.00  0.00    -0.503 OA
ATOM     35  H   LIG    1        5.798   2.922  -3.194  0.00  0.00    +0.292 HD
ENDBRANCH  30  34
BRANCH  31  36
ATOM     36  O   LIG    1        7.549   0.784  -0.650  0.00  0.00    -0.501 OA
ATOM     37  H   LIG    1        7.844   0.192   0.046  0.00  0.00    +0.292 HD
ENDBRANCH  31  36
BRANCH  32  38
ATOM     38  O   LIG    1        5.946  -0.764   1.036  0.00  0.00    -0.503 OA
ATOM     39  H   LIG    1        5.296  -1.245   1.553  0.00  0.00    +0.292 HD
ENDBRANCH  32  38
ENDBRANCH  26  28
ENDBRANCH  25  26
ENDBRANCH   6  25
TORSDOF 11
