REMARK  Name = DB16191
REMARK                            x       y       z     vdW  Elec       q    Type
REMARK                         _______ _______ _______ _____ _____    ______ ____
ROOT
ATOM      1  C   LIG    1        2.164   0.932   0.829  0.00  0.00    +0.221 A 
ATOM      2  N   LIG    1        1.540   1.279   1.986  0.00  0.00    -0.199 NA
ATOM      3  C   LIG    1        2.295   1.797   2.992  0.00  0.00    +0.131 A 
ATOM      4  C   LIG    1        3.684   1.966   2.838  0.00  0.00    +0.008 A 
ATOM      5  C   LIG    1        4.572   2.545   3.932  0.00  0.00    +0.049 C 
ATOM      6  C   LIG    1        4.239   1.574   1.615  0.00  0.00    +0.121 A 
ATOM      7  N   LIG    1        3.496   1.055   0.605  0.00  0.00    -0.222 NA
ENDROOT
BRANCH   1   8
ATOM      8  N   LIG    1        1.418   0.371  -0.218  0.00  0.00    -0.283 N 
ATOM      9  H   LIG    1        1.974   0.051  -0.998  0.00  0.00    +0.155 HD
BRANCH   8  12
ATOM     10  C   LIG    1       -2.274   0.963  -0.073  0.00  0.00    +0.157 A 
ATOM     11  C   LIG    1       -0.893   1.145   0.116  0.00  0.00    +0.072 A 
ATOM     12  C   LIG    1        0.031   0.220  -0.385  0.00  0.00    +0.037 A 
ATOM     13  C   LIG    1       -0.432  -0.881  -1.107  0.00  0.00    +0.029 A 
ATOM     14  C   LIG    1       -1.800  -1.079  -1.307  0.00  0.00    -0.010 A 
ATOM     15  C   LIG    1       -2.288  -2.291  -2.083  0.00  0.00    +0.047 C 
ATOM     16  C   LIG    1       -2.715  -0.158  -0.784  0.00  0.00    +0.168 A 
ATOM     17  F   LIG    1       -4.043  -0.348  -0.975  0.00  0.00    -0.201 F 
BRANCH  10  19
ATOM     18  C   LIG    1       -2.848   3.005   1.098  0.00  0.00    +0.277 C 
ATOM     19  O   LIG    1       -3.243   1.830   0.398  0.00  0.00    -0.492 OA
ENDBRANCH  10  19
ENDBRANCH   8  12
ENDBRANCH   1   8
BRANCH   3  20
ATOM     20  N   LIG    1        1.677   2.186   4.196  0.00  0.00    -0.299 N 
ATOM     21  H   LIG    1        2.321   2.623   4.839  0.00  0.00    +0.154 HD
BRANCH  20  22
ATOM     22  C   LIG    1        0.365   2.114   4.700  0.00  0.00    +0.035 A 
ATOM     23  C   LIG    1        0.120   2.784   5.909  0.00  0.00    +0.052 A 
ATOM     24  C   LIG    1       -1.163   2.747   6.449  0.00  0.00    +0.089 A 
ATOM     25  N   LIG    1       -1.724   3.284   7.577  0.00  0.00    -0.288 N 
ATOM     26  H   LIG    1       -1.250   3.847   8.268  0.00  0.00    +0.172 HD
ATOM     27  C   LIG    1       -3.070   2.941   7.651  0.00  0.00    +0.419 A 
ATOM     28  O   LIG    1       -3.917   3.219   8.496  0.00  0.00    -0.223 OA
ATOM     29  O   LIG    1       -3.325   2.182   6.545  0.00  0.00    -0.408 OA
ATOM     30  C   LIG    1       -2.173   2.070   5.827  0.00  0.00    +0.157 A 
ATOM     31  C   LIG    1       -1.973   1.385   4.635  0.00  0.00    +0.050 A 
ATOM     32  C   LIG    1       -0.689   1.411   4.075  0.00  0.00    +0.027 A 
ENDBRANCH  20  22
ENDBRANCH   3  20
TORSDOF 5
