REMARK  Name = DB16069
REMARK                            x       y       z     vdW  Elec       q    Type
REMARK                         _______ _______ _______ _____ _____    ______ ____
ROOT
ATOM      1  C   LIG    1        3.439  -1.271   0.035  0.00  0.00    +0.124 A 
ATOM      2  C   LIG    1        4.348  -0.207  -0.028  0.00  0.00    +0.046 A 
ATOM      3  C   LIG    1        5.719  -0.449  -0.084  0.00  0.00    +0.017 A 
ATOM      4  C   LIG    1        6.226  -1.757  -0.074  0.00  0.00    +0.046 A 
ATOM      5  C   LIG    1        5.308  -2.829  -0.024  0.00  0.00    +0.130 A 
ATOM      6  C   LIG    1        3.936  -2.574   0.035  0.00  0.00    +0.091 A 
ENDROOT
BRANCH   4   7
ATOM      7  C   LIG    1        7.683  -1.922  -0.128  0.00  0.00    +0.081 C 
ATOM      8  S   LIG    1        8.490  -3.176   0.784  0.00  0.00    -0.105 S 
ATOM      9  C   LIG    1       10.057  -2.304   0.531  0.00  0.00    +0.115 C 
ATOM     10  C   LIG    1        9.942  -1.516  -0.796  0.00  0.00    +0.143 C 
ATOM     11  C   LIG    1       10.276  -2.425  -2.016  0.00  0.00    +0.047 C 
ATOM     12  N   LIG    1        8.506  -1.149  -0.823  0.00  0.00    -0.364 N 
ATOM     13  H   LIG    1        8.172  -0.370  -1.384  0.00  0.00    +0.161 HD
BRANCH  10  14
ATOM     14  C   LIG    1       10.783  -0.193  -0.842  0.00  0.00    +0.331 C 
ATOM     15  O   LIG    1       11.465   0.147   0.153  0.00  0.00    -0.248 OA
BRANCH  14  16
ATOM     16  O   LIG    1       10.733   0.493  -1.891  0.00  0.00    -0.479 OA
ATOM     17  H   LIG    1       11.222   1.289  -1.954  0.00  0.00    +0.295 HD
ENDBRANCH  14  16
ENDBRANCH  10  14
ENDBRANCH   4   7
BRANCH   5  18
ATOM     18  O   LIG    1        5.695  -4.146  -0.065  0.00  0.00    -0.506 OA
ATOM     19  H   LIG    1        4.954  -4.755  -0.035  0.00  0.00    +0.292 HD
ENDBRANCH   5  18
BRANCH   1  20
ATOM     20  O   LIG    1        2.066  -1.127   0.091  0.00  0.00    -0.490 OA
BRANCH  20  21
ATOM     21  C   LIG    1        1.501   0.181   0.075  0.00  0.00    +0.257 C 
BRANCH  21  22
ATOM     22  C   LIG    1       -0.027   0.067   0.089  0.00  0.00    +0.201 C 
BRANCH  22  23
ATOM     23  O   LIG    1       -0.584   1.373   0.055  0.00  0.00    -0.374 OA
BRANCH  23  24
ATOM     24  C   LIG    1       -2.006   1.390   0.041  0.00  0.00    +0.188 C 
BRANCH  24  25
ATOM     25  C   LIG    1       -2.497   2.842  -0.022  0.00  0.00    +0.187 C 
BRANCH  25  27
ATOM     26  C   LIG    1       -2.394   4.817  -1.340  0.00  0.00    +0.194 C 
ATOM     27  O   LIG    1       -2.009   3.457  -1.207  0.00  0.00    -0.381 OA
ENDBRANCH  25  27
ENDBRANCH  24  25
ENDBRANCH  23  24
ENDBRANCH  22  23
ENDBRANCH  21  22
ENDBRANCH  20  21
ENDBRANCH   1  20
TORSDOF 11
