REMARK  Name = DB16166
REMARK                            x       y       z     vdW  Elec       q    Type
REMARK                         _______ _______ _______ _____ _____    ______ ____
ROOT
ATOM      1  N   LIG    1        1.444  -0.327   0.205  0.00  0.00    -0.284 N 
ATOM      2  C   LIG    1        2.126  -0.091   1.366  0.00  0.00    +0.334 A 
ATOM      3  O   LIG    1        1.598  -0.315   2.460  0.00  0.00    -0.246 OA
ATOM      4  N   LIG    1        3.422   0.414   1.183  0.00  0.00    -0.244 N 
ATOM      5  C   LIG    1        4.256   0.069   0.107  0.00  0.00    +0.266 A 
ATOM      6  O   LIG    1        5.471   0.252   0.082  0.00  0.00    -0.267 OA
ATOM      7  C   LIG    1        3.511  -0.507  -1.022  0.00  0.00    +0.074 A 
ATOM      8  C   LIG    1        4.029  -0.939  -2.277  0.00  0.00    -0.017 A 
ATOM      9  C   LIG    1        3.007  -1.431  -3.115  0.00  0.00    +0.080 A 
ATOM     10  S   LIG    1        1.455  -1.420  -2.341  0.00  0.00    -0.065 S 
ATOM     11  C   LIG    1        5.505  -0.963  -2.651  0.00  0.00    +0.046 C 
ATOM     12  C   LIG    1        2.138  -0.684  -0.936  0.00  0.00    +0.098 A 
ENDROOT
BRANCH   9  13
ATOM     13  C   LIG    1        3.092  -1.927  -4.491  0.00  0.00    +0.234 A 
ATOM     14  O   LIG    1        4.120  -1.504  -5.275  0.00  0.00    -0.443 OA
ATOM     15  C   LIG    1        3.884  -2.095  -6.469  0.00  0.00    +0.217 A 
ATOM     16  C   LIG    1        2.719  -2.827  -6.334  0.00  0.00    +0.152 A 
ATOM     17  N   LIG    1        2.231  -2.707  -5.113  0.00  0.00    -0.217 NA
ENDBRANCH   9  13
BRANCH   4  18
ATOM     18  C   LIG    1        4.037   1.170   2.391  0.00  0.00    +0.144 C 
ATOM     19  C   LIG    1        5.284   2.089   2.097  0.00  0.00    +0.046 C 
ATOM     20  C   LIG    1        4.531   0.125   3.448  0.00  0.00    +0.046 C 
BRANCH  18  21
ATOM     21  C   LIG    1        3.021   2.224   3.021  0.00  0.00    +0.331 C 
ATOM     22  O   LIG    1        2.828   2.240   4.260  0.00  0.00    -0.248 OA
BRANCH  21  23
ATOM     23  O   LIG    1        2.460   3.035   2.244  0.00  0.00    -0.479 OA
ATOM     24  H   LIG    1        1.857   3.668   2.583  0.00  0.00    +0.295 HD
ENDBRANCH  21  23
ENDBRANCH  18  21
ENDBRANCH   4  18
BRANCH   1  25
ATOM     25  C   LIG    1       -0.016  -0.100   0.186  0.00  0.00    +0.164 C 
BRANCH  25  26
ATOM     26  C   LIG    1       -0.417   1.391   0.008  0.00  0.00    +0.172 C 
BRANCH  26  28
ATOM     27  C   LIG    1       -0.435   1.599  -2.548  0.00  0.00    +0.126 A 
ATOM     28  C   LIG    1        0.105   1.984  -1.306  0.00  0.00    +0.024 A 
ATOM     29  C   LIG    1        1.162   2.902  -1.263  0.00  0.00    +0.010 A 
ATOM     30  C   LIG    1        1.687   3.436  -2.436  0.00  0.00    +0.001 A 
ATOM     31  C   LIG    1        1.159   3.059  -3.667  0.00  0.00    +0.004 A 
ATOM     32  C   LIG    1        0.106   2.149  -3.724  0.00  0.00    +0.046 A 
BRANCH  27  34
ATOM     33  C   LIG    1       -2.015   0.229  -3.779  0.00  0.00    +0.277 C 
ATOM     34  O   LIG    1       -1.469   0.678  -2.545  0.00  0.00    -0.495 OA
ENDBRANCH  27  34
ENDBRANCH  26  28
BRANCH  26  35
ATOM     35  O   LIG    1       -1.829   1.607   0.072  0.00  0.00    -0.367 OA
BRANCH  35  36
ATOM     36  C   LIG    1       -2.500   1.240   1.275  0.00  0.00    +0.123 C 
ATOM     37  C   LIG    1       -3.472   2.361   1.683  0.00  0.00    +0.059 C 
ATOM     38  C   LIG    1       -4.253   1.941   2.945  0.00  0.00    +0.162 C 
ATOM     39  O   LIG    1       -4.936   0.708   2.708  0.00  0.00    -0.380 OA
ATOM     40  C   LIG    1       -4.075  -0.386   2.385  0.00  0.00    +0.162 C 
ATOM     41  C   LIG    1       -3.289  -0.072   1.096  0.00  0.00    +0.059 C 
ENDBRANCH  35  36
ENDBRANCH  26  35
ENDBRANCH  25  26
ENDBRANCH   1  25
TORSDOF 10
