REMARK  Name = DB16103
REMARK                            x       y       z     vdW  Elec       q    Type
REMARK                         _______ _______ _______ _____ _____    ______ ____
ROOT
ATOM      1  S   LIG    1        2.385   1.556   0.124  0.00  0.00    +0.078 S 
ATOM      2  O   LIG    1        2.072   2.088   1.455  0.00  0.00    -0.150 OA
ATOM      3  O   LIG    1        2.163   2.377  -1.072  0.00  0.00    -0.150 OA
ENDROOT
BRANCH   1   4
ATOM      4  C   LIG    1        4.098   1.012   0.086  0.00  0.00    +0.184 A 
ATOM      5  C   LIG    1        4.525   0.171  -0.951  0.00  0.00    +0.191 A 
ATOM      6  F   LIG    1        3.662  -0.227  -1.916  0.00  0.00    -0.200 F 
ATOM      7  C   LIG    1        5.851  -0.262  -1.005  0.00  0.00    +0.198 A 
ATOM      8  F   LIG    1        6.256  -1.078  -2.007  0.00  0.00    -0.199 F 
ATOM      9  C   LIG    1        6.760   0.145  -0.029  0.00  0.00    +0.199 A 
ATOM     10  F   LIG    1        8.045  -0.277  -0.082  0.00  0.00    -0.199 F 
ATOM     11  C   LIG    1        6.345   0.992   1.000  0.00  0.00    +0.198 A 
ATOM     12  F   LIG    1        7.231   1.392   1.942  0.00  0.00    -0.199 F 
ATOM     13  C   LIG    1        5.020   1.429   1.059  0.00  0.00    +0.191 A 
ATOM     14  F   LIG    1        4.653   2.261   2.061  0.00  0.00    -0.200 F 
ENDBRANCH   1   4
BRANCH   1  15
ATOM     15  N   LIG    1        1.403   0.087  -0.065  0.00  0.00    -0.216 N 
ATOM     16  H   LIG    1        1.884  -0.796  -0.160  0.00  0.00    +0.174 HD
BRANCH  15  20
ATOM     17  C   LIG    1       -2.816  -0.061  -0.030  0.00  0.00    +0.155 A 
ATOM     18  C   LIG    1       -2.040  -1.232  -0.016  0.00  0.00    +0.050 A 
ATOM     19  C   LIG    1       -0.647  -1.161  -0.028  0.00  0.00    +0.028 A 
ATOM     20  C   LIG    1        0.001   0.075  -0.051  0.00  0.00    +0.051 A 
ATOM     21  C   LIG    1       -0.768   1.244  -0.062  0.00  0.00    +0.066 A 
ATOM     22  C   LIG    1       -2.162   1.175  -0.052  0.00  0.00    +0.167 A 
ATOM     23  F   LIG    1       -2.880   2.322  -0.064  0.00  0.00    -0.202 F 
BRANCH  17  25
ATOM     24  C   LIG    1       -4.909  -1.279  -0.008  0.00  0.00    +0.277 C 
ATOM     25  O   LIG    1       -4.199  -0.045  -0.024  0.00  0.00    -0.492 OA
ENDBRANCH  17  25
ENDBRANCH  15  20
ENDBRANCH   1  15
TORSDOF 4
