REMARK  Name = DB16165
REMARK                            x       y       z     vdW  Elec       q    Type
REMARK                         _______ _______ _______ _____ _____    ______ ____
ROOT
ATOM      1  N   LIG    1       -1.612  -2.219   0.321  0.00  0.00    -0.317 N 
ATOM      2  H   LIG    1       -2.176  -3.046   0.448  0.00  0.00    +0.152 HD
ATOM      3  C   LIG    1       -1.272  -1.871  -0.995  0.00  0.00    +0.045 A 
ATOM      4  C   LIG    1       -1.727  -2.638  -2.079  0.00  0.00    -0.011 A 
ATOM      5  C   LIG    1       -2.565  -3.896  -1.893  0.00  0.00    +0.047 C 
ATOM      6  C   LIG    1       -1.391  -2.211  -3.363  0.00  0.00    +0.119 A 
ATOM      7  N   LIG    1       -0.662  -1.097  -3.603  0.00  0.00    -0.221 NA
ATOM      8  C   LIG    1       -0.222  -0.366  -2.539  0.00  0.00    +0.221 A 
ATOM      9  C   LIG    1       -0.485  -0.720  -1.204  0.00  0.00    +0.047 A 
ATOM     10  C   LIG    1        0.060   0.111  -0.017  0.00  0.00    +0.096 C 
ATOM     11  C   LIG    1       -0.563  -0.335   1.329  0.00  0.00    +0.043 C 
ATOM     12  C   LIG    1       -1.333  -1.454   1.430  0.00  0.00    +0.014 C 
ATOM     13  C   LIG    1       -2.042  -1.983   2.676  0.00  0.00    +0.061 C 
ENDROOT
BRANCH  10  14
ATOM     14  C   LIG    1        1.600   0.148  -0.015  0.00  0.00    +0.007 A 
ATOM     15  C   LIG    1        2.247   1.378  -0.186  0.00  0.00    +0.009 A 
ATOM     16  C   LIG    1        3.637   1.458  -0.196  0.00  0.00    +0.019 A 
ATOM     17  C   LIG    1        4.401   0.304  -0.027  0.00  0.00    +0.055 A 
ATOM     18  C   LIG    1        3.767  -0.928   0.152  0.00  0.00    +0.064 A 
ATOM     19  C   LIG    1        2.364  -1.022   0.162  0.00  0.00    +0.125 A 
BRANCH  17  20
ATOM     20  C   LIG    1        5.854   0.384  -0.036  0.00  0.00    +0.099 C 
ATOM     21  N   LIG    1        7.010   0.448  -0.044  0.00  0.00    -0.191 NA
ENDBRANCH  17  20
BRANCH  19  22
ATOM     22  O   LIG    1        1.683  -2.215   0.338  0.00  0.00    -0.495 OA
ATOM     23  C   LIG    1        2.409  -3.425   0.514  0.00  0.00    +0.277 C 
ENDBRANCH  19  22
ENDBRANCH  10  14
BRANCH  11  24
ATOM     24  C   LIG    1       -0.244   0.517   2.463  0.00  0.00    +0.240 C 
ATOM     25  N   LIG    1        0.319  -0.101   3.507  0.00  0.00    -0.326 N 
ATOM     26  H   LIG    1        0.459  -1.101   3.492  0.00  0.00    +0.145 HD
ATOM     27  H   LIG    1        0.598   0.430   4.319  0.00  0.00    +0.145 HD
ATOM     28  O   LIG    1       -0.414   1.734   2.447  0.00  0.00    -0.271 OA
ENDBRANCH  11  24
BRANCH   8  29
ATOM     29  O   LIG    1        0.523   0.775  -2.785  0.00  0.00    -0.476 OA
BRANCH  29  30
ATOM     30  C   LIG    1        0.875   1.133  -4.120  0.00  0.00    +0.227 C 
ATOM     31  C   LIG    1        1.764   2.379  -4.070  0.00  0.00    +0.048 C 
ENDBRANCH  29  30
ENDBRANCH   8  29
TORSDOF 6
