REMARK  Name = DB16300
REMARK                            x       y       z     vdW  Elec       q    Type
REMARK                         _______ _______ _______ _____ _____    ______ ____
ROOT
ATOM      1  C   LIG    1        2.341   0.297   1.339  0.00  0.00    +0.158 A 
ATOM      2  C   LIG    1        3.706   0.618   1.315  0.00  0.00    +0.181 A 
ATOM      3  F   LIG    1        4.398   0.718   0.155  0.00  0.00    -0.200 F 
ATOM      4  C   LIG    1        4.339   0.837   2.541  0.00  0.00    +0.155 A 
ATOM      5  N   LIG    1        3.682   0.755   3.726  0.00  0.00    -0.231 NA
ATOM      6  C   LIG    1        2.359   0.440   3.662  0.00  0.00    +0.182 A 
ATOM      7  N   LIG    1        1.662   0.200   2.518  0.00  0.00    -0.208 NA
ENDROOT
BRANCH   6   8
ATOM      8  C   LIG    1        1.582   0.362   4.941  0.00  0.00    +0.130 A 
ATOM      9  C   LIG    1        0.231   0.022   5.102  0.00  0.00    +0.063 A 
ATOM     10  C   LIG    1       -0.062   0.084   6.457  0.00  0.00    +0.091 A 
ATOM     11  N   LIG    1        1.139   0.479   7.018  0.00  0.00    -0.257 N 
ATOM     12  N   LIG    1        2.120   0.626   6.113  0.00  0.00    -0.167 NA
BRANCH  10  13
ATOM     13  C   LIG    1       -1.331  -0.210   7.135  0.00  0.00    +0.131 A 
ATOM     14  C   LIG    1       -2.536  -0.522   6.500  0.00  0.00    +0.074 A 
ATOM     15  C   LIG    1       -3.436  -0.719   7.521  0.00  0.00    +0.231 A 
ATOM     16  O   LIG    1       -2.806  -0.535   8.706  0.00  0.00    -0.362 OA
ATOM     17  N   LIG    1       -1.473  -0.213   8.445  0.00  0.00    -0.077 NA
ENDBRANCH  10  13
BRANCH  11  18
ATOM     18  C   LIG    1        1.476   0.702   8.428  0.00  0.00    +0.182 C 
BRANCH  18  19
ATOM     19  C   LIG    1        1.774  -0.551   9.257  0.00  0.00    +0.009 A 
ATOM     20  C   LIG    1        1.982  -1.806   8.665  0.00  0.00    +0.008 A 
ATOM     21  C   LIG    1        2.248  -2.926   9.454  0.00  0.00    +0.000 A 
ATOM     22  C   LIG    1        2.311  -2.804  10.841  0.00  0.00    +0.003 A 
ATOM     23  C   LIG    1        2.109  -1.561  11.439  0.00  0.00    +0.039 A 
ATOM     24  C   LIG    1        1.843  -0.439  10.652  0.00  0.00    +0.128 A 
ATOM     25  F   LIG    1        1.650   0.759  11.253  0.00  0.00    -0.205 F 
ENDBRANCH  18  19
ENDBRANCH  11  18
ENDBRANCH   6   8
BRANCH   1  26
ATOM     26  N   LIG    1        1.666   0.083   0.124  0.00  0.00    -0.323 N 
ATOM     27  H   LIG    1        2.164   0.264  -0.736  0.00  0.00    +0.148 HD
BRANCH  26  28
ATOM     28  C   LIG    1        0.217  -0.129   0.048  0.00  0.00    +0.156 C 
BRANCH  28  29
ATOM     29  C   LIG    1       -0.670   1.134  -0.197  0.00  0.00    +0.271 C 
BRANCH  29  30
ATOM     30  C   LIG    1       -0.379   1.827  -1.564  0.00  0.00    +0.428 C 
ATOM     31  F   LIG    1       -1.097   2.940  -1.734  0.00  0.00    -0.167 F 
ATOM     32  F   LIG    1       -0.680   1.015  -2.577  0.00  0.00    -0.167 F 
ATOM     33  F   LIG    1        0.901   2.176  -1.716  0.00  0.00    -0.167 F 
ENDBRANCH  29  30
BRANCH  29  34
ATOM     34  C   LIG    1       -2.170   0.845   0.105  0.00  0.00    +0.428 C 
ATOM     35  F   LIG    1       -2.659  -0.061  -0.743  0.00  0.00    -0.167 F 
ATOM     36  F   LIG    1       -2.935   1.934  -0.004  0.00  0.00    -0.167 F 
ATOM     37  F   LIG    1       -2.358   0.366   1.337  0.00  0.00    -0.167 F 
ENDBRANCH  29  34
BRANCH  29  38
ATOM     38  O   LIG    1       -0.279   2.106   0.772  0.00  0.00    -0.372 OA
ATOM     39  H   LIG    1       -0.808   2.897   0.643  0.00  0.00    +0.211 HD
ENDBRANCH  29  38
ENDBRANCH  28  29
ENDBRANCH  26  28
ENDBRANCH   1  26
TORSDOF 10
