REMARK  Name = DB16886
REMARK                            x       y       z     vdW  Elec       q    Type
REMARK                         _______ _______ _______ _____ _____    ______ ____
ROOT
ATOM      1  C   LIG    1       -2.130   1.179   0.001  0.00  0.00    +0.001 A 
ATOM      2  C   LIG    1       -0.748   1.226   0.016  0.00  0.00    +0.004 A 
ATOM      3  C   LIG    1        0.001   0.054   0.010  0.00  0.00    -0.043 A 
ATOM      4  C   LIG    1        1.523   0.147   0.044  0.00  0.00    +0.044 C 
ATOM      5  C   LIG    1       -0.655  -1.221  -0.022  0.00  0.00    -0.014 A 
ATOM      6  C   LIG    1        0.083  -2.430  -0.005  0.00  0.00    +0.009 A 
ATOM      7  C   LIG    1       -0.556  -3.655  -0.003  0.00  0.00    +0.013 A 
ATOM      8  C   LIG    1       -1.940  -3.741  -0.051  0.00  0.00    +0.029 A 
ATOM      9  C   LIG    1       -2.619  -5.070   0.016  0.00  0.00    +0.147 A 
ATOM     10  O   LIG    1       -1.968  -6.257   0.065  0.00  0.00    -0.462 OA
ATOM     11  C   LIG    1       -2.926  -7.215   0.140  0.00  0.00    +0.199 A 
ATOM     12  C   LIG    1       -4.205  -6.667   0.174  0.00  0.00    -0.001 A 
ATOM     13  C   LIG    1       -5.519  -7.416   0.210  0.00  0.00    +0.048 C 
ATOM     14  C   LIG    1       -3.985  -5.282   0.060  0.00  0.00    +0.074 A 
ATOM     15  C   LIG    1       -4.907  -4.155   0.001  0.00  0.00    +0.237 C 
ATOM     16  O   LIG    1       -6.130  -4.211   0.145  0.00  0.00    -0.283 OA
ATOM     17  C   LIG    1       -4.261  -2.747  -0.295  0.00  0.00    +0.234 C 
ATOM     18  O   LIG    1       -5.029  -1.876  -0.706  0.00  0.00    -0.283 OA
ATOM     19  C   LIG    1       -2.751  -2.581  -0.127  0.00  0.00    +0.044 A 
ATOM     20  C   LIG    1       -2.092  -1.286  -0.067  0.00  0.00    -0.006 A 
ATOM     21  C   LIG    1       -2.795  -0.039  -0.036  0.00  0.00    +0.009 A 
ENDROOT
TORSDOF 0
