REMARK  Name = DB16935
REMARK                            x       y       z     vdW  Elec       q    Type
REMARK                         _______ _______ _______ _____ _____    ______ ____
ROOT
ATOM      1  C   LIG    1       -0.676  -0.415   1.011  0.00  0.00    +0.032 C 
ATOM      2  C   LIG    1       -2.248  -0.415   1.150  0.00  0.00    +0.006 C 
ATOM      3  C   LIG    1       -2.844   0.989   0.790  0.00  0.00    +0.015 C 
ATOM      4  C   LIG    1       -2.987  -1.532   0.356  0.00  0.00    +0.011 C 
ATOM      5  C   LIG    1       -4.497  -1.534   0.678  0.00  0.00    +0.009 C 
ATOM      6  C   LIG    1       -4.848  -1.569   2.207  0.00  0.00    +0.025 C 
ATOM      7  C   LIG    1       -6.376  -1.308   2.533  0.00  0.00    -0.013 C 
ATOM      8  C   LIG    1       -6.918  -0.059   1.771  0.00  0.00    +0.012 C 
ATOM      9  C   LIG    1       -7.275  -2.515   2.107  0.00  0.00    +0.041 C 
ATOM     10  C   LIG    1       -7.105  -3.794   2.964  0.00  0.00    +0.144 C 
ATOM     11  C   LIG    1       -7.265  -3.507   4.480  0.00  0.00    +0.144 C 
ATOM     12  C   LIG    1       -6.338  -2.352   4.907  0.00  0.00    +0.046 C 
ATOM     13  C   LIG    1       -6.599  -1.069   4.068  0.00  0.00    +0.069 C 
ATOM     14  C   LIG    1       -5.710   0.080   4.582  0.00  0.00    +0.160 C 
ATOM     15  O   LIG    1       -6.113   0.917   5.388  0.00  0.00    -0.292 OA
ATOM     16  C   LIG    1       -4.336   0.067   4.106  0.00  0.00    +0.049 C 
ATOM     17  C   LIG    1       -3.897  -0.670   3.058  0.00  0.00    -0.031 C 
ATOM     18  C   LIG    1       -2.409  -0.779   2.669  0.00  0.00    +0.093 C 
ATOM     19  C   LIG    1       -1.384   0.162   3.329  0.00  0.00    +0.040 C 
ATOM     20  C   LIG    1       -0.177   0.153   2.373  0.00  0.00    +0.010 C 
ENDROOT
BRANCH   1  21
ATOM     21  C   LIG    1        0.058   0.193  -0.252  0.00  0.00    +0.092 C 
ATOM     22  C   LIG    1       -0.505  -0.370  -1.582  0.00  0.00    +0.044 C 
BRANCH  21  23
ATOM     23  O   LIG    1       -0.168   1.595  -0.289  0.00  0.00    -0.386 OA
ATOM     24  H   LIG    1        0.233   1.946  -1.087  0.00  0.00    +0.210 HD
ENDBRANCH  21  23
BRANCH  21  25
ATOM     25  C   LIG    1        1.622   0.003  -0.166  0.00  0.00    +0.146 C 
BRANCH  25  26
ATOM     26  O   LIG    1        2.278   0.627  -1.263  0.00  0.00    -0.389 OA
ATOM     27  H   LIG    1        2.072   1.564  -1.246  0.00  0.00    +0.210 HD
ENDBRANCH  25  26
BRANCH  25  28
ATOM     28  C   LIG    1        2.115  -1.469  -0.091  0.00  0.00    +0.037 C 
BRANCH  28  29
ATOM     29  C   LIG    1        3.649  -1.628   0.067  0.00  0.00    +0.037 C 
BRANCH  29  30
ATOM     30  C   LIG    1        4.181  -3.080   0.225  0.00  0.00    +0.061 C 
ATOM     31  C   LIG    1        5.699  -3.088   0.493  0.00  0.00    +0.041 C 
ATOM     32  C   LIG    1        3.816  -3.975  -0.979  0.00  0.00    +0.041 C 
BRANCH  30  33
ATOM     33  O   LIG    1        3.556  -3.669   1.351  0.00  0.00    -0.389 OA
ATOM     34  H   LIG    1        3.887  -4.564   1.450  0.00  0.00    +0.210 HD
ENDBRANCH  30  33
ENDBRANCH  29  30
ENDBRANCH  28  29
ENDBRANCH  25  28
ENDBRANCH  21  25
ENDBRANCH   1  21
BRANCH  10  35
ATOM     35  O   LIG    1       -7.972  -4.820   2.519  0.00  0.00    -0.389 OA
ATOM     36  H   LIG    1       -8.877  -4.530   2.657  0.00  0.00    +0.210 HD
ENDBRANCH  10  35
BRANCH  11  37
ATOM     37  O   LIG    1       -8.611  -3.221   4.825  0.00  0.00    -0.389 OA
ATOM     38  H   LIG    1       -8.871  -3.802   5.545  0.00  0.00    +0.210 HD
ENDBRANCH  11  37
BRANCH  18  39
ATOM     39  O   LIG    1       -1.981  -2.103   2.990  0.00  0.00    -0.384 OA
ATOM     40  H   LIG    1       -2.497  -2.723   2.469  0.00  0.00    +0.211 HD
ENDBRANCH  18  39
TORSDOF 11
