REMARK  Name = DB16167
REMARK                            x       y       z     vdW  Elec       q    Type
REMARK                         _______ _______ _______ _____ _____    ______ ____
ROOT
ATOM      1  C   LIG    1        1.424  -0.079  -0.029  0.00  0.00    -0.014 A 
ATOM      2  C   LIG    1        2.142  -0.259   1.157  0.00  0.00    +0.011 A 
ATOM      3  C   LIG    1        3.535  -0.231   1.173  0.00  0.00    +0.029 A 
ATOM      4  C   LIG    1        4.252  -0.021  -0.027  0.00  0.00    +0.076 A 
ATOM      5  N   LIG    1        5.616   0.018  -0.001  0.00  0.00    -0.214 NA
ATOM      6  C   LIG    1        6.261   0.216  -1.180  0.00  0.00    +0.216 A 
ATOM      7  N   LIG    1        5.662   0.376  -2.392  0.00  0.00    -0.222 NA
ATOM      8  C   LIG    1        4.309   0.343  -2.402  0.00  0.00    +0.124 A 
ATOM      9  C   LIG    1        3.527   0.150  -1.242  0.00  0.00    +0.019 A 
ATOM     10  C   LIG    1        2.113   0.121  -1.229  0.00  0.00    +0.020 A 
ENDROOT
BRANCH   1  14
ATOM     11  C   LIG    1       -2.186   1.113  -0.024  0.00  0.00    +0.142 A 
ATOM     12  C   LIG    1       -0.786   1.113  -0.048  0.00  0.00    +0.092 A 
ATOM     13 CL   LIG    1        0.049   2.635  -0.102  0.00  0.00    -0.079 Cl
ATOM     14  C   LIG    1       -0.063  -0.092  -0.014  0.00  0.00    +0.026 A 
ATOM     15  C   LIG    1       -0.766  -1.309   0.039  0.00  0.00    +0.092 A 
ATOM     16 CL   LIG    1        0.095  -2.817   0.070  0.00  0.00    -0.079 Cl
ATOM     17  C   LIG    1       -2.166  -1.331   0.056  0.00  0.00    +0.142 A 
ATOM     18  C   LIG    1       -2.863  -0.114   0.026  0.00  0.00    +0.094 A 
BRANCH  11  20
ATOM     19  C   LIG    1       -4.246   2.399   0.007  0.00  0.00    +0.277 C 
ATOM     20  O   LIG    1       -2.825   2.341  -0.048  0.00  0.00    -0.494 OA
ENDBRANCH  11  20
BRANCH  17  21
ATOM     21  O   LIG    1       -2.785  -2.568   0.100  0.00  0.00    -0.494 OA
ATOM     22  C   LIG    1       -4.206  -2.648   0.103  0.00  0.00    +0.277 C 
ENDBRANCH  17  21
ENDBRANCH   1  14
BRANCH   6  23
ATOM     23  N   LIG    1        7.660   0.274  -1.086  0.00  0.00    -0.307 N 
ATOM     24  H   LIG    1        8.063   0.044  -0.189  0.00  0.00    +0.149 HD
BRANCH  23  25
ATOM     25  C   LIG    1        8.536   0.164  -2.259  0.00  0.00    +0.119 C 
ATOM     26  C   LIG    1        9.934   0.765  -1.936  0.00  0.00    +0.098 C 
ATOM     27  C   LIG    1       10.769  -0.176  -1.040  0.00  0.00    +0.052 C 
ATOM     28  C   LIG    1       10.718  -1.636  -1.536  0.00  0.00    +0.162 C 
ATOM     29  O   LIG    1        9.369  -2.065  -1.701  0.00  0.00    -0.378 OA
ATOM     30  C   LIG    1        8.645  -1.321  -2.682  0.00  0.00    +0.183 C 
BRANCH  26  31
ATOM     31  N   LIG    1        9.950   2.163  -1.487  0.00  0.00    -0.307 N 
ATOM     32  H   LIG    1       10.180   2.313  -0.515  0.00  0.00    +0.149 HD
ATOM     33  C   LIG    1        9.595   3.228  -2.228  0.00  0.00    +0.237 C 
ATOM     34  O   LIG    1        9.241   3.148  -3.407  0.00  0.00    -0.271 OA
BRANCH  33  35
ATOM     35  C   LIG    1        9.685   4.476  -1.505  0.00  0.00    +0.059 C 
ATOM     36  C   LIG    1        9.388   5.663  -2.065  0.00  0.00    +0.013 C 
ENDBRANCH  33  35
ENDBRANCH  26  31
ENDBRANCH  23  25
ENDBRANCH   6  23
TORSDOF 7
