REMARK  Name = DB16315
REMARK                            x       y       z     vdW  Elec       q    Type
REMARK                         _______ _______ _______ _____ _____    ______ ____
ROOT
ATOM      1  C   LIG    1        1.881  -0.055   0.442  0.00  0.00    +0.051 C 
ATOM      2  C   LIG    1        2.176  -1.361   1.204  0.00  0.00    +0.065 C 
ATOM      3  C   LIG    1        3.473  -1.051   1.984  0.00  0.00    +0.140 C 
ATOM      4  O   LIG    1        4.226  -1.868   2.510  0.00  0.00    -0.297 OA
ATOM      5  C   LIG    1        3.703   0.462   1.952  0.00  0.00    +0.106 C 
ATOM      6  C   LIG    1        2.421   1.046   1.363  0.00  0.00    +0.129 C 
ENDROOT
BRANCH   1   8
ATOM      7  C   LIG    1       -0.448   1.047   0.354  0.00  0.00    +0.000 C 
ATOM      8  C   LIG    1        0.412   0.059   0.029  0.00  0.00    -0.022 C 
BRANCH   7   9
ATOM      9  C   LIG    1       -1.920   1.175  -0.043  0.00  0.00    +0.141 C 
BRANCH   9  10
ATOM     10  O   LIG    1       -2.317   0.096  -0.870  0.00  0.00    -0.387 OA
ATOM     11  H   LIG    1       -1.777   0.106  -1.663  0.00  0.00    +0.210 HD
ENDBRANCH   9  10
BRANCH   9  12
ATOM     12  C   LIG    1       -2.892   1.257   1.156  0.00  0.00    +0.070 C 
BRANCH  12  15
ATOM     13  C   LIG    1       -2.729   4.748   2.712  0.00  0.00    -0.022 A 
ATOM     14  C   LIG    1       -3.007   3.697   1.831  0.00  0.00    +0.009 A 
ATOM     15  C   LIG    1       -2.590   2.394   2.124  0.00  0.00    -0.044 A 
ATOM     16  C   LIG    1       -1.886   2.146   3.307  0.00  0.00    +0.004 A 
ATOM     17  C   LIG    1       -1.600   3.190   4.186  0.00  0.00    +0.001 A 
ATOM     18  C   LIG    1       -2.018   4.487   3.889  0.00  0.00    +0.006 A 
BRANCH  13  19
ATOM     19  C   LIG    1       -3.178   6.164   2.379  0.00  0.00    +0.194 C 
BRANCH  19  21
ATOM     20  C   LIG    1       -4.107   8.138   3.322  0.00  0.00    +0.194 C 
ATOM     21  O   LIG    1       -3.703   6.795   3.541  0.00  0.00    -0.378 OA
ENDBRANCH  19  21
ENDBRANCH  13  19
ENDBRANCH  12  15
ENDBRANCH   9  12
ENDBRANCH   7   9
ENDBRANCH   1   8
BRANCH   6  22
ATOM     22  O   LIG    1        2.636   2.283   0.715  0.00  0.00    -0.391 OA
ATOM     23  H   LIG    1        2.781   2.116  -0.220  0.00  0.00    +0.210 HD
ENDBRANCH   6  22
BRANCH   2  24
ATOM     24  C   LIG    1        2.330  -2.611   0.297  0.00  0.00    +0.022 C 
BRANCH  24  25
ATOM     25  C   LIG    1        2.218  -3.955   1.044  0.00  0.00    +0.070 C 
BRANCH  25  26
ATOM     26  S   LIG    1        2.440  -5.428   0.006  0.00  0.00    -0.161 S 
BRANCH  26  27
ATOM     27  C   LIG    1        4.209  -5.307  -0.384  0.00  0.00    +0.069 C 
BRANCH  27  28
ATOM     28  C   LIG    1        4.828  -6.613  -0.915  0.00  0.00    +0.022 C 
BRANCH  28  29
ATOM     29  C   LIG    1        6.303  -6.489  -1.361  0.00  0.00    +0.121 C 
BRANCH  29  30
ATOM     30  C   LIG    1        7.269  -6.113  -0.233  0.00  0.00    +0.307 C 
ATOM     31  O   LIG    1        7.862  -5.033  -0.235  0.00  0.00    -0.251 OA
BRANCH  30  32
ATOM     32  O   LIG    1        7.368  -7.075   0.709  0.00  0.00    -0.468 OA
ATOM     33  C   LIG    1        8.207  -6.891   1.840  0.00  0.00    +0.280 C 
ENDBRANCH  30  32
ENDBRANCH  29  30
ENDBRANCH  28  29
ENDBRANCH  27  28
ENDBRANCH  26  27
ENDBRANCH  25  26
ENDBRANCH  24  25
ENDBRANCH   2  24
TORSDOF 16
