REMARK  Name = DB16928
REMARK                            x       y       z     vdW  Elec       q    Type
REMARK                         _______ _______ _______ _____ _____    ______ ____
ROOT
ATOM      1  C   LIG    1       -6.370  -4.914   1.911  0.00  0.00    +0.126 C 
ATOM      2  O   LIG    1       -6.718  -6.270   2.125  0.00  0.00    -0.345 OA
ATOM      3  C   LIG    1       -7.534  -6.743   1.087  0.00  0.00    +0.173 C 
ATOM      4  O   LIG    1       -8.889  -6.415   1.325  0.00  0.00    -0.348 OA
ATOM      5  C   LIG    1       -9.461  -6.991   2.506  0.00  0.00    +0.166 C 
ATOM      6  C   LIG    1       -9.387  -8.533   2.536  0.00  0.00    +0.012 C 
ATOM      7  C   LIG    1      -10.420  -9.154   1.573  0.00  0.00    +0.010 C 
ATOM      8  C   LIG    1       -7.952  -8.980   2.217  0.00  0.00    +0.011 C 
ATOM      9  C   LIG    1       -7.399  -8.274   0.968  0.00  0.00    +0.065 C 
ATOM     10  C   LIG    1       -7.015  -6.038  -0.194  0.00  0.00    +0.051 C 
ATOM     11  C   LIG    1       -8.138  -5.566  -1.144  0.00  0.00    +0.013 C 
ATOM     12  C   LIG    1       -6.170  -4.894   0.389  0.00  0.00    +0.032 C 
ATOM     13  C   LIG    1       -4.624  -4.936   0.168  0.00  0.00    -0.023 C 
ATOM     14  C   LIG    1       -4.034  -6.382   0.291  0.00  0.00    +0.012 C 
ATOM     15  C   LIG    1       -4.150  -4.263  -1.145  0.00  0.00    +0.007 C 
ATOM     16  C   LIG    1       -2.614  -4.064  -1.159  0.00  0.00    +0.005 C 
ATOM     17  C   LIG    1       -2.088  -3.278   0.087  0.00  0.00    -0.001 C 
ATOM     18  C   LIG    1       -0.518  -3.107   0.143  0.00  0.00    -0.026 C 
ATOM     19  C   LIG    1        0.203  -4.476   0.335  0.00  0.00    +0.012 C 
ATOM     20  C   LIG    1        0.084  -2.484  -1.159  0.00  0.00    +0.010 C 
ATOM     21  C   LIG    1       -0.368  -1.033  -1.422  0.00  0.00    +0.032 C 
ATOM     22  C   LIG    1        0.001  -0.107  -0.243  0.00  0.00    +0.115 C 
ATOM     23  C   LIG    1       -0.556  -0.678   1.077  0.00  0.00    +0.035 C 
ATOM     24  C   LIG    1       -0.148  -2.160   1.348  0.00  0.00    -0.002 C 
ATOM     25  C   LIG    1       -0.743  -2.680   2.687  0.00  0.00    +0.004 C 
ATOM     26  C   LIG    1       -2.267  -2.905   2.609  0.00  0.00    +0.004 C 
ATOM     27  C   LIG    1       -2.661  -3.839   1.439  0.00  0.00    -0.004 C 
ATOM     28  C   LIG    1       -4.201  -4.004   1.325  0.00  0.00    +0.001 C 
ATOM     29  C   LIG    1       -5.019  -4.491   2.526  0.00  0.00    +0.036 C 
ENDROOT
BRANCH  22  30
ATOM     30  O   LIG    1        1.404   0.064  -0.159  0.00  0.00    -0.392 OA
ATOM     31  H   LIG    1        1.611   0.984  -0.335  0.00  0.00    +0.210 HD
ENDBRANCH  22  30
TORSDOF 1
