REMARK  Name = DB16100
REMARK                            x       y       z     vdW  Elec       q    Type
REMARK                         _______ _______ _______ _____ _____    ______ ____
ROOT
ATOM      1  C   LIG    1       -0.531  -0.839  -1.270  0.00  0.00    +0.094 C 
ATOM      2  C   LIG    1       -0.039  -0.113   0.039  0.00  0.00    +0.009 C 
ATOM      3  C   LIG    1       -0.657  -0.730   1.319  0.00  0.00    +0.007 C 
ATOM      4  C   LIG    1       -2.195  -0.696   1.273  0.00  0.00    +0.032 C 
ATOM      5  C   LIG    1       -2.740  -1.459   0.051  0.00  0.00    +0.118 C 
ATOM      6  C   LIG    1       -2.091  -0.960  -1.266  0.00  0.00    +0.071 C 
ENDROOT
BRANCH   1   9
ATOM      7  C   LIG    1        1.228   0.101  -4.601  0.00  0.00    +0.120 A 
ATOM      8  C   LIG    1        0.789  -0.627  -3.482  0.00  0.00    +0.052 A 
ATOM      9  C   LIG    1       -0.051  -0.047  -2.514  0.00  0.00    -0.012 A 
ATOM     10  C   LIG    1       -0.448   1.286  -2.697  0.00  0.00    +0.007 A 
ATOM     11  C   LIG    1       -0.019   2.017  -3.802  0.00  0.00    +0.004 A 
ATOM     12  C   LIG    1        0.815   1.425  -4.746  0.00  0.00    +0.045 A 
BRANCH   7  14
ATOM     13  C   LIG    1        2.495  -1.753  -5.505  0.00  0.00    +0.277 C 
ATOM     14  O   LIG    1        2.054  -0.402  -5.589  0.00  0.00    -0.495 OA
ENDBRANCH   7  14
ENDBRANCH   1   9
BRANCH   5  15
ATOM     15  O   LIG    1       -2.531  -2.850   0.210  0.00  0.00    -0.392 OA
ATOM     16  H   LIG    1       -3.380  -3.296   0.152  0.00  0.00    +0.210 HD
ENDBRANCH   5  15
BRANCH   1  17
ATOM     17  O   LIG    1       -0.006  -2.162  -1.230  0.00  0.00    -0.384 OA
ATOM     18  H   LIG    1       -0.409  -2.623  -0.490  0.00  0.00    +0.211 HD
ENDBRANCH   1  17
BRANCH   2  19
ATOM     19  C   LIG    1        1.517  -0.033   0.153  0.00  0.00    -0.073 C 
BRANCH  19  20
ATOM     20  N   LIG    1        2.024   1.429   0.152  0.00  0.00    +0.376 N 
ATOM     21  H   LIG    1        1.561   1.901  -0.613  0.00  0.00    -0.083 HD
ATOM     22  C   LIG    1        3.537   1.503  -0.135  0.00  0.00    -0.097 C 
ATOM     23  C   LIG    1        1.674   2.185   1.450  0.00  0.00    -0.097 C 
ENDBRANCH  19  20
ENDBRANCH   2  19
TORSDOF 6
