REMARK  Name = DB16296
REMARK                            x       y       z     vdW  Elec       q    Type
REMARK                         _______ _______ _______ _____ _____    ______ ____
ROOT
ATOM      1  C   LIG    1        1.577  -0.126  -0.169  0.00  0.00    +0.048 A 
ATOM      2  N   LIG    1        1.986  -0.014   1.171  0.00  0.00    -0.279 N 
ATOM      3  C   LIG    1        3.310  -0.065   1.584  0.00  0.00    +0.265 A 
ATOM      4  O   LIG    1        3.610  -0.004   2.783  0.00  0.00    -0.267 OA
ATOM      5  C   LIG    1        4.351  -0.212   0.454  0.00  0.00    +0.062 A 
ATOM      6  C   LIG    1        5.756  -0.254   0.700  0.00  0.00    +0.038 A 
ATOM      7  C   LIG    1        6.641  -0.410  -0.376  0.00  0.00    +0.017 A 
ATOM      8  C   LIG    1        6.174  -0.523  -1.680  0.00  0.00    +0.002 A 
ATOM      9  C   LIG    1        4.810  -0.479  -1.933  0.00  0.00    +0.009 A 
ATOM     10  C   LIG    1        3.909  -0.326  -0.879  0.00  0.00    -0.010 A 
ATOM     11  C   LIG    1        2.480  -0.278  -1.160  0.00  0.00    +0.032 A 
ENDROOT
BRANCH   2  12
ATOM     12  C   LIG    1        1.015   0.171   2.187  0.00  0.00    +0.050 A 
ATOM     13  C   LIG    1        0.363  -0.938   2.739  0.00  0.00    +0.026 A 
ATOM     14  C   LIG    1       -0.600  -0.750   3.727  0.00  0.00    +0.002 A 
ATOM     15  C   LIG    1       -0.900   0.539   4.165  0.00  0.00    +0.000 A 
ATOM     16  C   LIG    1       -0.242   1.645   3.630  0.00  0.00    +0.002 A 
ATOM     17  C   LIG    1        0.722   1.463   2.643  0.00  0.00    +0.026 A 
ENDBRANCH   2  12
BRANCH   1  19
ATOM     18  C   LIG    1       -0.365  -0.620  -1.877  0.00  0.00    +0.034 C 
ATOM     19  C   LIG    1        0.058  -0.076  -0.492  0.00  0.00    +0.117 C 
BRANCH  19  20
ATOM     20  N   LIG    1       -0.468   1.280  -0.313  0.00  0.00    -0.303 N 
ATOM     21  H   LIG    1        0.115   2.029  -0.659  0.00  0.00    +0.150 HD
ATOM     22  C   LIG    1       -1.688   1.599   0.158  0.00  0.00    +0.252 C 
ATOM     23  O   LIG    1       -2.546   0.767   0.456  0.00  0.00    -0.270 OA
BRANCH  22  24
ATOM     24  C   LIG    1       -1.894   3.021   0.337  0.00  0.00    +0.122 A 
ATOM     25  C   LIG    1       -3.087   3.644   0.781  0.00  0.00    +0.153 A 
ATOM     26  N   LIG    1       -3.000   4.956   0.870  0.00  0.00    -0.149 NA
ATOM     27  N   LIG    1       -1.746   5.263   0.500  0.00  0.00    -0.219 N 
ATOM     28  C   LIG    1       -1.209   6.523   0.452  0.00  0.00    +0.116 A 
ATOM     29  C   LIG    1        0.118   6.648   0.049  0.00  0.00    +0.039 A 
ATOM     30  C   LIG    1        0.817   5.484  -0.278  0.00  0.00    +0.114 A 
ATOM     31  N   LIG    1        0.278   4.234  -0.229  0.00  0.00    -0.235 NA
ATOM     32  C   LIG    1       -1.004   4.125   0.160  0.00  0.00    +0.170 A 
BRANCH  25  33
ATOM     33  N   LIG    1       -4.278   3.066   1.118  0.00  0.00    -0.341 N 
ATOM     34  H   LIG    1       -5.066   3.619   1.423  0.00  0.00    +0.144 HD
ATOM     35  H   LIG    1       -4.406   2.065   1.079  0.00  0.00    +0.144 HD
ENDBRANCH  25  33
ENDBRANCH  22  24
ENDBRANCH  19  20
ENDBRANCH   1  19
BRANCH   6  36
ATOM     36  C   LIG    1        6.388  -0.136   2.015  0.00  0.00    -0.060 C 
ATOM     37  C   LIG    1        6.905  -0.021   3.116  0.00  0.00    -0.058 C 
BRANCH  37  38
ATOM     38  C   LIG    1        7.481   0.126   4.440  0.00  0.00    +0.063 A 
ATOM     39  C   LIG    1        6.827   0.053   5.679  0.00  0.00    +0.151 A 
ATOM     40  N   LIG    1        7.634   0.230   6.702  0.00  0.00    -0.179 NA
ATOM     41  N   LIG    1        8.836   0.427   6.148  0.00  0.00    -0.273 N 
ATOM     42  C   LIG    1        9.986   0.652   7.004  0.00  0.00    +0.172 C 
ATOM     43  C   LIG    1        8.801   0.371   4.778  0.00  0.00    +0.124 A 
ENDBRANCH  37  38
ENDBRANCH   6  36
TORSDOF 7
