REMARK  Name = DB16088
REMARK                            x       y       z     vdW  Elec       q    Type
REMARK                         _______ _______ _______ _____ _____    ______ ____
ROOT
ATOM      1  C   LIG    1       -0.069   2.392  -0.355  0.00  0.00    +0.149 C 
ATOM      2  N   LIG    1       -0.680   1.143   0.120  0.00  0.00    -0.344 N 
ATOM      3  C   LIG    1       -2.012   0.947   0.492  0.00  0.00    +0.090 A 
ATOM      4  C   LIG    1       -2.152  -0.372   0.900  0.00  0.00    +0.031 A 
ATOM      5  C   LIG    1       -0.913  -0.983   0.787  0.00  0.00    +0.024 A 
ATOM      6  C   LIG    1        0.008  -0.051   0.316  0.00  0.00    +0.028 A 
ENDROOT
BRANCH   3   7
ATOM      7  C   LIG    1       -3.027   2.024   0.394  0.00  0.00    +0.209 C 
ATOM      8  O   LIG    1       -2.865   2.974  -0.375  0.00  0.00    -0.285 OA
BRANCH   7   9
ATOM      9  C   LIG    1       -4.315   1.891   1.155  0.00  0.00    +0.024 A 
ATOM     10  C   LIG    1       -4.367   1.266   2.410  0.00  0.00    +0.012 A 
ATOM     11  C   LIG    1       -5.566   1.190   3.113  0.00  0.00    +0.004 A 
ATOM     12  C   LIG    1       -6.726   1.747   2.576  0.00  0.00    -0.050 A 
ATOM     13  C   LIG    1       -8.033   1.679   3.345  0.00  0.00    +0.044 C 
ATOM     14  C   LIG    1       -6.682   2.395   1.342  0.00  0.00    +0.004 A 
ATOM     15  C   LIG    1       -5.482   2.473   0.639  0.00  0.00    +0.012 A 
ENDBRANCH   7   9
ENDBRANCH   3   7
BRANCH   6  16
ATOM     16  C   LIG    1        1.502  -0.195   0.018  0.00  0.00    +0.149 C 
BRANCH  16  17
ATOM     17  C   LIG    1        2.121  -1.525   0.471  0.00  0.00    +0.219 C 
ATOM     18  N   LIG    1        2.572  -2.342  -0.499  0.00  0.00    -0.305 N 
ATOM     19  H   LIG    1        2.523  -2.024  -1.456  0.00  0.00    +0.149 HD
ATOM     20  O   LIG    1        2.184  -1.794   1.672  0.00  0.00    -0.275 OA
BRANCH  18  21
ATOM     21  C   LIG    1        3.184  -3.665  -0.288  0.00  0.00    +0.224 C 
BRANCH  21  22
ATOM     22  C   LIG    1        2.178  -4.821  -0.037  0.00  0.00    +0.322 C 
ATOM     23  O   LIG    1        0.956  -4.659  -0.270  0.00  0.00    -0.249 OA
BRANCH  22  24
ATOM     24  O   LIG    1        2.672  -5.895   0.372  0.00  0.00    -0.480 OA
ATOM     25  H   LIG    1        2.117  -6.631   0.543  0.00  0.00    +0.295 HD
ENDBRANCH  22  24
ENDBRANCH  21  22
ENDBRANCH  18  21
ENDBRANCH  16  17
ENDBRANCH   6  16
TORSDOF 7
