REMARK  Name = DB16838
REMARK                            x       y       z     vdW  Elec       q    Type
REMARK                         _______ _______ _______ _____ _____    ______ ____
ROOT
ATOM      1  C   LIG    1        1.849   0.579  -0.341  0.00  0.00    +0.130 A 
ATOM      2  C   LIG    1        2.282  -0.156   0.765  0.00  0.00    +0.063 A 
ATOM      3  C   LIG    1        3.661  -0.279   0.980  0.00  0.00    +0.044 A 
ATOM      4  C   LIG    1        4.599   0.320   0.097  0.00  0.00    +0.080 A 
ATOM      5  C   LIG    1        4.148   1.045  -1.016  0.00  0.00    +0.032 A 
ATOM      6  N   LIG    1        5.905   0.127   0.421  0.00  0.00    -0.225 NA
ATOM      7  C   LIG    1        6.031  -0.599   1.495  0.00  0.00    +0.160 A 
ATOM      8  S   LIG    1        4.534  -1.115   2.255  0.00  0.00    -0.052 S 
ATOM      9  C   LIG    1        2.772   1.157  -1.221  0.00  0.00    +0.048 A 
ENDROOT
BRANCH   7  10
ATOM     10  N   LIG    1        7.261  -0.918   2.016  0.00  0.00    -0.318 N 
ATOM     11  H   LIG    1        8.088  -0.604   1.528  0.00  0.00    +0.148 HD
BRANCH  10  12
ATOM     12  C   LIG    1        7.588  -1.862   3.085  0.00  0.00    +0.101 C 
ATOM     13  C   LIG    1        8.859  -1.354   3.802  0.00  0.00    +0.025 C 
ATOM     14  C   LIG    1        9.325  -2.332   4.896  0.00  0.00    +0.002 C 
ATOM     15  C   LIG    1        9.546  -3.748   4.332  0.00  0.00    +0.003 C 
ATOM     16  C   LIG    1        8.305  -4.277   3.586  0.00  0.00    +0.033 C 
ATOM     17  C   LIG    1        7.792  -3.295   2.509  0.00  0.00    +0.135 C 
BRANCH  17  18
ATOM     18  O   LIG    1        6.626  -3.822   1.904  0.00  0.00    -0.390 OA
ATOM     19  H   LIG    1        5.937  -3.881   2.570  0.00  0.00    +0.210 HD
ENDBRANCH  17  18
ENDBRANCH  10  12
ENDBRANCH   7  10
BRANCH   1  20
ATOM     20  O   LIG    1        0.495   0.683  -0.570  0.00  0.00    -0.456 OA
BRANCH  20  25
ATOM     21  C   LIG    1       -2.095   3.179  -1.290  0.00  0.00    +0.129 A 
ATOM     22  N   LIG    1       -1.547   4.332  -0.807  0.00  0.00    -0.250 NA
ATOM     23  C   LIG    1       -0.317   4.281  -0.238  0.00  0.00    +0.115 A 
ATOM     24  C   LIG    1        0.416   3.101  -0.129  0.00  0.00    +0.066 A 
ATOM     25  C   LIG    1       -0.133   1.912  -0.634  0.00  0.00    +0.132 A 
ATOM     26  C   LIG    1       -1.407   1.957  -1.208  0.00  0.00    +0.079 A 
BRANCH  21  27
ATOM     27  C   LIG    1       -3.472   3.242  -1.922  0.00  0.00    +0.262 C 
ATOM     28  N   LIG    1       -4.051   4.458  -1.996  0.00  0.00    -0.313 N 
ATOM     29  H   LIG    1       -3.551   5.247  -1.613  0.00  0.00    +0.149 HD
ATOM     30  C   LIG    1       -5.360   4.739  -2.575  0.00  0.00    +0.128 C 
ATOM     31  O   LIG    1       -4.016   2.218  -2.343  0.00  0.00    -0.269 OA
ENDBRANCH  21  27
ENDBRANCH  20  25
ENDBRANCH   1  20
TORSDOF 6
