REMARK  Name = DB16042
REMARK                            x       y       z     vdW  Elec       q    Type
REMARK                         _______ _______ _______ _____ _____    ______ ____
ROOT
ATOM      1  S   LIG    1        1.652  -0.416   0.066  0.00  0.00    +0.029 S 
ATOM      2  O   LIG    1        2.246   0.731  -0.632  0.00  0.00    -0.164 OA
ATOM      3  O   LIG    1        1.926  -1.785  -0.386  0.00  0.00    -0.164 OA
ENDROOT
BRANCH   1  16
ATOM      4  C   LIG    1       -0.689   1.053   0.441  0.00  0.00    +0.145 A 
ATOM      5  C   LIG    1       -2.087   1.185   0.436  0.00  0.00    +0.051 A 
ATOM      6  C   LIG    1       -2.923   0.127   0.068  0.00  0.00    -0.042 A 
ATOM      7  C   LIG    1       -4.445   0.277   0.086  0.00  0.00    +0.017 C 
ATOM      8  C   LIG    1       -5.219  -0.556   1.134  0.00  0.00    -0.075 C 
ATOM      9  N   LIG    1       -4.555  -1.887   1.556  0.00  0.00    +0.378 N 
ATOM     10  H   LIG    1       -3.686  -1.622   2.000  0.00  0.00    -0.082 HD
ATOM     11  C   LIG    1       -5.389  -2.604   2.638  0.00  0.00    -0.096 C 
ATOM     12  C   LIG    1       -4.152  -2.866   0.429  0.00  0.00    -0.075 C 
ATOM     13  C   LIG    1       -3.260  -2.274  -0.687  0.00  0.00    +0.017 C 
ATOM     14  C   LIG    1       -2.352  -1.105  -0.303  0.00  0.00    -0.044 A 
ATOM     15  C   LIG    1       -0.962  -1.241  -0.293  0.00  0.00    +0.035 A 
ATOM     16  C   LIG    1       -0.132  -0.178   0.069  0.00  0.00    +0.135 A 
BRANCH   4  18
ATOM     17  C   LIG    1       -0.350   3.342   1.178  0.00  0.00    +0.277 C 
ATOM     18  O   LIG    1        0.173   2.072   0.803  0.00  0.00    -0.493 OA
ENDBRANCH   4  18
ENDBRANCH   1  16
BRANCH   1  19
ATOM     19  C   LIG    1        2.129  -0.326   1.791  0.00  0.00    +0.094 A 
ATOM     20  C   LIG    1        1.937  -1.437   2.613  0.00  0.00    +0.031 A 
ATOM     21  C   LIG    1        2.292  -1.374   3.958  0.00  0.00    +0.047 A 
ATOM     22  C   LIG    1        2.840  -0.196   4.491  0.00  0.00    +0.121 A 
ATOM     23  C   LIG    1        3.027   0.908   3.657  0.00  0.00    +0.047 A 
ATOM     24  C   LIG    1        2.675   0.848   2.312  0.00  0.00    +0.031 A 
BRANCH  22  25
ATOM     25  O   LIG    1        3.217  -0.039   5.810  0.00  0.00    -0.487 OA
BRANCH  25  26
ATOM     26  C   LIG    1        3.054  -1.126   6.719  0.00  0.00    +0.264 C 
BRANCH  26  27
ATOM     27  C   LIG    1        3.492  -0.689   8.108  0.00  0.00    -0.010 A 
ATOM     28  C   LIG    1        4.529  -1.359   8.762  0.00  0.00    +0.008 A 
ATOM     29  C   LIG    1        4.924  -0.955  10.035  0.00  0.00    +0.020 A 
ATOM     30  C   LIG    1        4.279   0.117  10.652  0.00  0.00    +0.041 A 
ATOM     31 CL   LIG    1        4.769   0.617  12.229  0.00  0.00    -0.084 Cl
ATOM     32  C   LIG    1        3.243   0.787  10.004  0.00  0.00    +0.020 A 
ATOM     33  C   LIG    1        2.849   0.384   8.731  0.00  0.00    +0.008 A 
ENDBRANCH  26  27
ENDBRANCH  25  26
ENDBRANCH  22  25
ENDBRANCH   1  19
TORSDOF 6
