REMARK  Name = DB16029
REMARK                            x       y       z     vdW  Elec       q    Type
REMARK                         _______ _______ _______ _____ _____    ______ ____
ROOT
ATOM      1  C   LIG    1       -0.538  -0.736   1.274  0.00  0.00    +0.035 C 
ATOM      2  C   LIG    1       -0.196   0.027  -0.047  0.00  0.00    +0.161 C 
ENDROOT
BRANCH   2   3
ATOM      3  C   LIG    1       -0.804   1.488   0.136  0.00  0.00    +0.322 C 
ATOM      4  O   LIG    1       -0.044   2.451   0.401  0.00  0.00    -0.250 OA
BRANCH   3   5
ATOM      5  O   LIG    1       -2.047   1.654   0.097  0.00  0.00    -0.480 OA
ATOM      6  H   LIG    1       -2.408   2.512   0.204  0.00  0.00    +0.295 HD
ENDBRANCH   3   5
ENDBRANCH   2   3
BRANCH   2   7
ATOM      7  C   LIG    1       -0.804  -0.861  -1.221  0.00  0.00    +0.322 C 
ATOM      8  O   LIG    1       -0.044  -1.572  -1.923  0.00  0.00    -0.250 OA
BRANCH   7   9
ATOM      9  O   LIG    1       -2.047  -0.910  -1.385  0.00  0.00    -0.480 OA
ATOM     10  H   LIG    1       -2.408  -1.432  -2.074  0.00  0.00    +0.295 HD
ENDBRANCH   7   9
ENDBRANCH   2   7
BRANCH   2  11
ATOM     11  C   LIG    1        1.394   0.073  -0.127  0.00  0.00    +0.029 C 
BRANCH  11  12
ATOM     12  C   LIG    1        2.046   0.779  -1.349  0.00  0.00    +0.002 C 
BRANCH  12  13
ATOM     13  C   LIG    1        3.584   0.749  -1.297  0.00  0.00    +0.003 C 
BRANCH  13  14
ATOM     14  C   LIG    1        4.239   1.445  -2.503  0.00  0.00    +0.033 C 
BRANCH  14  15
ATOM     15  C   LIG    1        5.773   1.416  -2.453  0.00  0.00    +0.213 C 
ATOM     16  F   LIG    1        6.342   2.019  -3.496  0.00  0.00    -0.249 F 
ENDBRANCH  14  15
ENDBRANCH  13  14
ENDBRANCH  12  13
ENDBRANCH  11  12
ENDBRANCH   2  11
TORSDOF 9
