REMARK  Name = DB16945
REMARK                            x       y       z     vdW  Elec       q    Type
REMARK                         _______ _______ _______ _____ _____    ______ ____
ROOT
ATOM      1  C   LIG    1        4.760   0.660  -1.163  0.00  0.00    +0.114 C 
ATOM      2  C   LIG    1        5.564   1.675  -0.300  0.00  0.00    +0.128 C 
ATOM      3  N   LIG    1        6.899   1.859  -0.892  0.00  0.00    -0.378 N 
ATOM      4  H   LIG    1        7.436   2.674  -0.628  0.00  0.00    +0.160 HD
ATOM      5  C   LIG    1        7.475   0.993  -1.736  0.00  0.00    +0.151 C 
ATOM      6  N   LIG    1        6.888  -0.161  -2.083  0.00  0.00    -0.336 N 
ATOM      7  H   LIG    1        7.391  -0.767  -2.716  0.00  0.00    +0.147 HD
ATOM      8  C   LIG    1        5.572  -0.595  -1.587  0.00  0.00    +0.117 C 
ENDROOT
BRANCH   1  11
ATOM      9  C   LIG    1        1.503  -0.018   0.023  0.00  0.00    +0.172 A 
ATOM     10  N   LIG    1        2.240   0.522  -0.929  0.00  0.00    -0.196 NA
ATOM     11  C   LIG    1        3.449   0.281  -0.502  0.00  0.00    +0.234 A 
ATOM     12  O   LIG    1        3.488  -0.390   0.675  0.00  0.00    -0.338 OA
ATOM     13  N   LIG    1        2.152  -0.586   1.017  0.00  0.00    -0.061 NA
BRANCH   9  15
ATOM     14  C   LIG    1       -0.582   1.440   0.008  0.00  0.00    +0.012 C 
ATOM     15  C   LIG    1       -0.014   0.012  -0.024  0.00  0.00    +0.076 C 
ENDBRANCH   9  15
ENDBRANCH   1  11
TORSDOF 2
