REMARK  Name = DB16856
REMARK                            x       y       z     vdW  Elec       q    Type
REMARK                         _______ _______ _______ _____ _____    ______ ____
ROOT
ATOM      1  C   LIG    1        0.014   0.013   0.000  0.00  0.00    +0.167 A 
ATOM      2  O   LIG    1       -0.601   1.225   0.000  0.00  0.00    -0.460 OA
ATOM      3  C   LIG    1       -1.938   0.989   0.000  0.00  0.00    +0.196 A 
ATOM      4  C   LIG    1       -2.184  -0.375   0.000  0.00  0.00    +0.042 A 
ATOM      5  C   LIG    1       -0.936  -1.000   0.000  0.00  0.00    +0.052 A 
ENDROOT
BRANCH   1   6
ATOM      6  C   LIG    1        1.463  -0.009   0.000  0.00  0.00    +0.296 C 
ATOM      7  O   LIG    1        2.119  -1.049   0.000  0.00  0.00    -0.292 OA
ENDBRANCH   1   6
TORSDOF 1
