REMARK  Name = DB16057
REMARK                            x       y       z     vdW  Elec       q    Type
REMARK                         _______ _______ _______ _____ _____    ______ ____
ROOT
ATOM      1  C   LIG    1        1.088   0.402  -0.164  0.00  0.00    -0.015 A 
ATOM      2  C   LIG    1        1.872  -0.124  -1.192  0.00  0.00    +0.008 A 
ATOM      3  C   LIG    1        3.066  -0.779  -0.900  0.00  0.00    +0.037 A 
ATOM      4  C   LIG    1        3.507  -0.917   0.423  0.00  0.00    +0.164 A 
ATOM      5  C   LIG    1        2.726  -0.381   1.466  0.00  0.00    +0.159 A 
ATOM      6  C   LIG    1        1.518   0.264   1.158  0.00  0.00    +0.054 A 
ENDROOT
BRANCH   1   8
ATOM      7  C   LIG    1       -0.057   2.603  -0.711  0.00  0.00    +0.043 C 
ATOM      8  C   LIG    1       -0.237   1.099  -0.461  0.00  0.00    +0.155 C 
BRANCH   8   9
ATOM      9  O   LIG    1       -0.846   0.531  -1.615  0.00  0.00    -0.297 OA
BRANCH   9  10
ATOM     10  P   LIG    1       -2.051  -0.565  -1.494  0.00  0.00    +0.349 P 
ATOM     11  O   LIG    1       -3.152  -0.108  -0.600  0.00  0.00    -0.254 OA
BRANCH  10  12
ATOM     12  N   LIG    1       -1.229  -1.990  -1.094  0.00  0.00    -0.216 NA
ATOM     13  C   LIG    1       -0.941  -2.316   0.289  0.00  0.00    +0.111 C 
ATOM     14  C   LIG    1       -1.941  -3.113  -0.518  0.00  0.00    +0.111 C 
ENDBRANCH  10  12
BRANCH  10  15
ATOM     15  N   LIG    1       -2.412  -0.864  -3.117  0.00  0.00    -0.216 NA
ATOM     16  C   LIG    1       -3.701  -1.403  -3.499  0.00  0.00    +0.111 C 
ATOM     17  C   LIG    1       -3.304   0.016  -3.845  0.00  0.00    +0.111 C 
ENDBRANCH  10  15
ENDBRANCH   9  10
ENDBRANCH   8   9
ENDBRANCH   1   8
BRANCH   4  18
ATOM     18  N   LIG    1        4.785  -1.613   0.692  0.00  0.00    +0.010 N 
ATOM     19  O   LIG    1        5.101  -2.543  -0.045  0.00  0.00    -0.130 OA
BRANCH  18  20
ATOM     20  O   LIG    1        5.488  -1.221   1.618  0.00  0.00    -0.396 OA
ATOM     21  H   LIG    1        5.203  -0.506   2.153  0.00  0.00    +0.329 HD
ENDBRANCH  18  20
ENDBRANCH   4  18
BRANCH   5  22
ATOM     22  O   LIG    1        3.134  -0.559   2.775  0.00  0.00    -0.454 OA
BRANCH  22  23
ATOM     23  C   LIG    1        2.855   0.372   3.753  0.00  0.00    +0.129 A 
ATOM     24  C   LIG    1        2.416  -0.081   4.997  0.00  0.00    +0.046 A 
ATOM     25  C   LIG    1        2.153   0.825   6.022  0.00  0.00    +0.004 A 
ATOM     26  C   LIG    1        2.329   2.191   5.809  0.00  0.00    +0.013 A 
ATOM     27  C   LIG    1        2.765   2.672   4.564  0.00  0.00    +0.040 A 
ATOM     28  C   LIG    1        3.050   1.745   3.551  0.00  0.00    +0.059 A 
BRANCH  27  29
ATOM     29  C   LIG    1        2.999   4.148   4.317  0.00  0.00    +0.246 C 
ATOM     30  N   LIG    1        2.146   5.065   4.850  0.00  0.00    -0.304 N 
ATOM     31  C   LIG    1        0.776   4.790   5.291  0.00  0.00    +0.132 C 
ATOM     32  C   LIG    1        2.516   6.477   4.977  0.00  0.00    +0.132 C 
ATOM     33  O   LIG    1        3.985   4.480   3.653  0.00  0.00    -0.270 OA
ENDBRANCH  27  29
ENDBRANCH  22  23
ENDBRANCH   5  22
TORSDOF 10
