REMARK  Name = DB16335
REMARK                            x       y       z     vdW  Elec       q    Type
REMARK                         _______ _______ _______ _____ _____    ______ ____
ROOT
ATOM      1  C   LIG    1       -4.032  -0.108  -0.167  0.00  0.00    +0.159 C 
ATOM      2  C   LIG    1       -3.952  -1.116   1.006  0.00  0.00    +0.135 C 
ATOM      3  C   LIG    1       -2.420  -0.850   0.972  0.00  0.00    +0.229 C 
ATOM      4  O   LIG    1       -1.456  -1.259   1.615  0.00  0.00    -0.275 OA
ATOM      5  N   LIG    1       -2.585   0.122  -0.026  0.00  0.00    -0.250 N 
ATOM      6  C   LIG    1       -2.105   1.398  -0.074  0.00  0.00    +0.142 C 
ATOM      7  C   LIG    1       -3.142   2.272   0.001  0.00  0.00    +0.071 C 
ATOM      8  S   LIG    1       -4.761   1.520   0.075  0.00  0.00    -0.093 S 
ENDROOT
BRANCH   2   9
ATOM      9  C   LIG    1       -4.341  -2.594   0.721  0.00  0.00    +0.126 C 
ATOM     10  C   LIG    1       -5.852  -2.746   0.480  0.00  0.00    +0.038 C 
BRANCH   9  11
ATOM     11  O   LIG    1       -3.676  -3.150  -0.403  0.00  0.00    -0.391 OA
ATOM     12  H   LIG    1       -2.729  -3.111  -0.248  0.00  0.00    +0.210 HD
ENDBRANCH   9  11
ENDBRANCH   2   9
BRANCH   6  13
ATOM     13  C   LIG    1       -0.647   1.657  -0.128  0.00  0.00    +0.358 C 
ATOM     14  O   LIG    1       -0.173   2.788   0.019  0.00  0.00    -0.243 OA
BRANCH  13  15
ATOM     15  O   LIG    1        0.106   0.528  -0.340  0.00  0.00    -0.423 OA
BRANCH  15  16
ATOM     16  C   LIG    1        1.502   0.648  -0.232  0.00  0.00    +0.473 C 
BRANCH  16  17
ATOM     17  O   LIG    1        1.945   0.858   1.085  0.00  0.00    -0.427 OA
BRANCH  17  18
ATOM     18  C   LIG    1        1.921  -0.212   1.929  0.00  0.00    +0.313 C 
ATOM     19  O   LIG    1        1.710  -1.389   1.620  0.00  0.00    -0.250 OA
BRANCH  18  20
ATOM     20  C   LIG    1        2.196   0.200   3.390  0.00  0.00    +0.097 C 
BRANCH  20  21
ATOM     21  C   LIG    1        0.882   0.307   4.210  0.00  0.00    +0.011 C 
ATOM     22  C   LIG    1       -0.107   1.383   3.726  0.00  0.00    +0.004 C 
ENDBRANCH  20  21
BRANCH  20  23
ATOM     23  C   LIG    1        3.228  -0.723   4.090  0.00  0.00    +0.011 C 
ATOM     24  C   LIG    1        4.632  -0.710   3.461  0.00  0.00    +0.004 C 
ENDBRANCH  20  23
ENDBRANCH  18  20
ENDBRANCH  17  18
ENDBRANCH  16  17
ENDBRANCH  15  16
ENDBRANCH  13  15
ENDBRANCH   6  13
BRANCH   7  25
ATOM     25  S   LIG    1       -2.999   4.051   0.042  0.00  0.00    -0.112 S 
BRANCH  25  26
ATOM     26  C   LIG    1       -3.766   4.455   1.642  0.00  0.00    +0.065 C 
ATOM     27  C   LIG    1       -3.717   5.951   1.940  0.00  0.00    +0.118 C 
ATOM     28  S   LIG    1       -4.238   6.050   3.710  0.00  0.00    +0.023 S 
ATOM     29  O   LIG    1       -3.688   7.322   4.355  0.00  0.00    -0.257 OA
ATOM     30  C   LIG    1       -3.121   4.613   4.066  0.00  0.00    +0.105 C 
ATOM     31  C   LIG    1       -3.096   3.712   2.817  0.00  0.00    +0.028 C 
ENDBRANCH  25  26
ENDBRANCH   7  25
TORSDOF 12
