REMARK  Name = DB16865
REMARK                            x       y       z     vdW  Elec       q    Type
REMARK                         _______ _______ _______ _____ _____    ______ ____
ROOT
ATOM      1  C   LIG    1       -0.270   0.206  -0.032  0.00  0.00    +0.289 C 
ENDROOT
BRANCH   1   2
ATOM      2  C   LIG    1       -0.917   1.609  -0.220  0.00  0.00    +0.346 C 
ATOM      3  O   LIG    1       -2.107   1.726   0.152  0.00  0.00    -0.247 OA
BRANCH   2   4
ATOM      4  O   LIG    1       -0.250   2.535  -0.739  0.00  0.00    -0.478 OA
ATOM      5  H   LIG    1        0.638   2.385  -0.997  0.00  0.00    +0.295 HD
ENDBRANCH   2   4
ENDBRANCH   1   2
BRANCH   1   6
ATOM      6  C   LIG    1       -0.595  -0.706  -1.242  0.00  0.00    +0.091 C 
BRANCH   6  10
ATOM      7  C   LIG    1        1.188  -4.631  -0.888  0.00  0.00    +0.158 A 
ATOM      8  C   LIG    1        0.026  -4.321  -0.168  0.00  0.00    +0.158 A 
ATOM      9  C   LIG    1       -0.549  -3.054  -0.290  0.00  0.00    +0.053 A 
ATOM     10  C   LIG    1        0.027  -2.092  -1.127  0.00  0.00    -0.040 A 
ATOM     11  C   LIG    1        1.186  -2.407  -1.842  0.00  0.00    +0.007 A 
ATOM     12  C   LIG    1        1.764  -3.671  -1.722  0.00  0.00    +0.049 A 
BRANCH   8  13
ATOM     13  O   LIG    1       -0.560  -5.244   0.662  0.00  0.00    -0.503 OA
ATOM     14  H   LIG    1       -1.343  -4.908   1.102  0.00  0.00    +0.292 HD
ENDBRANCH   8  13
BRANCH   7  15
ATOM     15  O   LIG    1        1.776  -5.867  -0.788  0.00  0.00    -0.503 OA
ATOM     16  H   LIG    1        2.567  -5.952  -1.325  0.00  0.00    +0.292 HD
ENDBRANCH   7  15
ENDBRANCH   6  10
ENDBRANCH   1   6
BRANCH   1  17
ATOM     17  O   LIG    1        1.159   0.310   0.101  0.00  0.00    -0.446 OA
BRANCH  17  18
ATOM     18  C   LIG    1        1.765   0.483   1.302  0.00  0.00    +0.333 C 
ATOM     19  O   LIG    1        1.171   0.595   2.378  0.00  0.00    -0.246 OA
BRANCH  18  20
ATOM     20  C   LIG    1        3.217   0.508   1.170  0.00  0.00    +0.092 C 
ATOM     21  C   LIG    1        4.045   0.633   2.229  0.00  0.00    +0.015 C 
BRANCH  21  22
ATOM     22  C   LIG    1        5.524   0.650   2.196  0.00  0.00    -0.021 A 
ATOM     23  C   LIG    1        6.260   0.432   1.022  0.00  0.00    +0.057 A 
ATOM     24  C   LIG    1        7.657   0.452   1.038  0.00  0.00    +0.159 A 
ATOM     25  C   LIG    1        8.336   0.694   2.238  0.00  0.00    +0.158 A 
ATOM     26  C   LIG    1        7.612   0.914   3.410  0.00  0.00    +0.050 A 
ATOM     27  C   LIG    1        6.218   0.892   3.387  0.00  0.00    +0.012 A 
BRANCH  24  28
ATOM     28  O   LIG    1        8.345   0.229  -0.128  0.00  0.00    -0.503 OA
ATOM     29  H   LIG    1        7.769   0.073  -0.880  0.00  0.00    +0.292 HD
ENDBRANCH  24  28
BRANCH  25  30
ATOM     30  O   LIG    1        9.707   0.718   2.283  0.00  0.00    -0.503 OA
ATOM     31  H   LIG    1       10.105   0.556   1.424  0.00  0.00    +0.292 HD
ENDBRANCH  25  30
ENDBRANCH  21  22
ENDBRANCH  18  20
ENDBRANCH  17  18
ENDBRANCH   1  17
TORSDOF 12
