REMARK  Name = DB16228
REMARK                            x       y       z     vdW  Elec       q    Type
REMARK                         _______ _______ _______ _____ _____    ______ ____
ROOT
ATOM      1  C   LIG    1        1.403   0.242   0.281  0.00  0.00    +0.156 A 
ATOM      2  C   LIG    1        2.043  -0.971   0.595  0.00  0.00    +0.148 A 
ATOM      3  N   LIG    1        1.581  -2.154   1.115  0.00  0.00    -0.231 NA
ATOM      4  C   LIG    1        2.647  -2.916   1.163  0.00  0.00    +0.201 A 
ATOM      5  N   LIG    1        3.802  -2.315   0.706  0.00  0.00    -0.318 N 
ATOM      6  C   LIG    1        5.122  -2.916   0.623  0.00  0.00    +0.152 C 
ATOM      7  C   LIG    1        3.431  -1.043   0.322  0.00  0.00    +0.167 A 
ATOM      8  N   LIG    1        4.171  -0.063  -0.207  0.00  0.00    -0.195 NA
ATOM      9  C   LIG    1        3.468   1.082  -0.433  0.00  0.00    +0.222 A 
ATOM     10  N   LIG    1        2.132   1.267  -0.237  0.00  0.00    -0.197 NA
ENDROOT
BRANCH   9  11
ATOM     11  N   LIG    1        4.171   2.103  -1.085  0.00  0.00    -0.295 N 
ATOM     12  C   LIG    1        4.380   1.971  -2.527  0.00  0.00    +0.133 C 
ATOM     13  C   LIG    1        3.349   2.844  -3.253  0.00  0.00    +0.126 C 
ATOM     14  C   LIG    1        3.311   4.058  -2.320  0.00  0.00    +0.205 C 
ATOM     15  F   LIG    1        4.191   4.957  -2.767  0.00  0.00    -0.242 F 
ATOM     16  C   LIG    1        3.820   3.525  -0.971  0.00  0.00    +0.147 C 
BRANCH  13  17
ATOM     17  N   LIG    1        2.073   2.118  -3.339  0.00  0.00    -0.305 N 
ATOM     18  H   LIG    1        2.134   1.120  -3.206  0.00  0.00    +0.149 HD
ATOM     19  C   LIG    1        0.888   2.612  -3.741  0.00  0.00    +0.237 C 
ATOM     20  O   LIG    1        0.719   3.781  -4.095  0.00  0.00    -0.271 OA
BRANCH  19  21
ATOM     21  C   LIG    1       -0.170   1.630  -3.698  0.00  0.00    +0.059 C 
ATOM     22  C   LIG    1       -1.429   1.901  -4.088  0.00  0.00    +0.013 C 
ENDBRANCH  19  21
ENDBRANCH  13  17
ENDBRANCH   9  11
BRANCH   1  23
ATOM     23  N   LIG    1        0.013   0.362   0.451  0.00  0.00    -0.292 N 
ATOM     24  H   LIG    1       -0.402  -0.516   0.724  0.00  0.00    +0.154 HD
BRANCH  23  26
ATOM     25  C   LIG    1       -0.639   2.786   0.037  0.00  0.00    +0.255 A 
ATOM     26  C   LIG    1       -0.811   1.381   0.026  0.00  0.00    +0.114 A 
ATOM     27  C   LIG    1       -2.079   1.218  -0.508  0.00  0.00    +0.135 A 
ATOM     28  N   LIG    1       -2.546   2.469  -0.806  0.00  0.00    -0.269 N 
ATOM     29  C   LIG    1       -3.818   2.834  -1.401  0.00  0.00    +0.172 C 
ATOM     30  N   LIG    1       -1.677   3.425  -0.477  0.00  0.00    -0.132 NA
BRANCH  25  32
ATOM     31  C   LIG    1        0.527   4.864   0.345  0.00  0.00    +0.279 C 
ATOM     32  O   LIG    1        0.457   3.452   0.543  0.00  0.00    -0.477 OA
ENDBRANCH  25  32
ENDBRANCH  23  26
ENDBRANCH   1  23
TORSDOF 6
