REMARK  Name = DB16883
REMARK                            x       y       z     vdW  Elec       q    Type
REMARK                         _______ _______ _______ _____ _____    ______ ____
ROOT
ATOM      1  C   LIG    1        1.534  -0.157   0.105  0.00  0.00    +0.228 A 
ATOM      2  N   LIG    1        2.319  -0.988   0.766  0.00  0.00    -0.126 NA
ATOM      3  N   LIG    1        3.594  -0.953   0.226  0.00  0.00    -0.128 NA
ATOM      4  C   LIG    1        3.542  -0.100  -0.821  0.00  0.00    +0.178 A 
ATOM      5  C   LIG    1        4.495   0.334  -1.755  0.00  0.00    +0.052 A 
ATOM      6  C   LIG    1        4.084   1.240  -2.736  0.00  0.00    +0.034 A 
ATOM      7  C   LIG    1        2.754   1.688  -2.779  0.00  0.00    +0.092 A 
ATOM      8  N   LIG    1        1.817   1.272  -1.880  0.00  0.00    -0.163 NA
ATOM      9  N   LIG    1        2.244   0.413  -0.939  0.00  0.00    -0.191 N 
ENDROOT
BRANCH   7  10
ATOM     10  C   LIG    1        2.276   2.674  -3.801  0.00  0.00    +0.005 A 
ATOM     11  C   LIG    1        1.175   3.515  -3.553  0.00  0.00    +0.030 A 
ATOM     12  C   LIG    1        0.757   4.417  -4.532  0.00  0.00    +0.111 A 
ATOM     13  N   LIG    1        1.368   4.529  -5.737  0.00  0.00    -0.263 NA
ATOM     14  C   LIG    1        2.428   3.720  -5.980  0.00  0.00    +0.111 A 
ATOM     15  C   LIG    1        2.906   2.793  -5.052  0.00  0.00    +0.030 A 
ENDBRANCH   7  10
BRANCH   1  17
ATOM     16  F   LIG    1       -0.662  -0.880  -0.268  0.00  0.00    -0.191 F 
ATOM     17  C   LIG    1        0.044   0.043   0.390  0.00  0.00    +0.334 C 
ATOM     18  F   LIG    1       -0.213  -0.145   1.687  0.00  0.00    -0.191 F 
BRANCH  17  19
ATOM     19  C   LIG    1       -0.471   1.452   0.061  0.00  0.00    +0.029 A 
ATOM     20  C   LIG    1       -1.466   1.652  -0.903  0.00  0.00    +0.020 A 
ATOM     21  C   LIG    1       -1.893   2.959  -1.238  0.00  0.00    +0.001 A 
ATOM     22  C   LIG    1       -2.875   3.214  -2.229  0.00  0.00    +0.011 A 
ATOM     23  C   LIG    1       -3.233   4.529  -2.515  0.00  0.00    +0.020 A 
ATOM     24  C   LIG    1       -2.615   5.561  -1.815  0.00  0.00    +0.111 A 
ATOM     25  N   LIG    1       -1.674   5.360  -0.860  0.00  0.00    -0.255 NA
ATOM     26  C   LIG    1       -1.311   4.079  -0.569  0.00  0.00    +0.071 A 
ATOM     27  C   LIG    1       -0.324   3.854   0.417  0.00  0.00    +0.029 A 
ATOM     28  C   LIG    1        0.082   2.556   0.717  0.00  0.00    +0.012 A 
ENDBRANCH  17  19
ENDBRANCH   1  17
TORSDOF 3
