REMARK  Name = DB16844
REMARK                            x       y       z     vdW  Elec       q    Type
REMARK                         _______ _______ _______ _____ _____    ______ ____
ROOT
ATOM      1  C   LIG    1        6.259   0.660   0.375  0.00  0.00    +0.034 A 
ATOM      2  C   LIG    1        5.701   1.941   0.307  0.00  0.00    +0.024 A 
ATOM      3  C   LIG    1        4.319   2.107   0.329  0.00  0.00    +0.015 A 
ATOM      4  C   LIG    1        3.466   0.999   0.422  0.00  0.00    +0.037 A 
ATOM      5  C   LIG    1        4.034  -0.282   0.506  0.00  0.00    +0.015 A 
ATOM      6  C   LIG    1        5.417  -0.446   0.488  0.00  0.00    +0.024 A 
ENDROOT
BRANCH   4   7
ATOM      7  C   LIG    1        1.965   1.207   0.445  0.00  0.00    +0.248 C 
ATOM      8  O   LIG    1        1.503   2.318   0.711  0.00  0.00    -0.270 OA
ATOM      9  N   LIG    1        1.220   0.116   0.150  0.00  0.00    -0.281 N 
ATOM     10  H   LIG    1        1.736  -0.737  -0.002  0.00  0.00    +0.155 HD
BRANCH   9  11
ATOM     11  C   LIG    1       -0.182  -0.040   0.070  0.00  0.00    +0.037 A 
ATOM     12  C   LIG    1       -1.083   1.041   0.022  0.00  0.00    +0.025 A 
ATOM     13  C   LIG    1       -2.461   0.824  -0.063  0.00  0.00    -0.063 A 
ATOM     14  C   LIG    1       -2.952  -0.482  -0.096  0.00  0.00    +0.002 A 
ATOM     15  C   LIG    1       -2.072  -1.560  -0.060  0.00  0.00    +0.005 A 
ATOM     16  C   LIG    1       -0.692  -1.353   0.021  0.00  0.00    -0.029 A 
ATOM     17  C   LIG    1        0.226  -2.571   0.061  0.00  0.00    +0.045 C 
BRANCH  13  18
ATOM     18  C   LIG    1       -3.419   2.002  -0.082  0.00  0.00    -0.047 C 
BRANCH  18  19
ATOM     19  N   LIG    1       -3.674   2.540  -1.498  0.00  0.00    +0.380 N 
ATOM     20  H   LIG    1       -4.051   1.794  -2.067  0.00  0.00    -0.086 HD
ATOM     21  H   LIG    1       -2.791   2.817  -1.903  0.00  0.00    -0.086 HD
ATOM     22  C   LIG    1       -4.639   3.734  -1.536  0.00  0.00    -0.100 C 
ENDBRANCH  18  19
ENDBRANCH  13  18
ENDBRANCH   9  11
ENDBRANCH   4   7
BRANCH   1  23
ATOM     23  N   LIG    1        7.645   0.423   0.372  0.00  0.00    -0.284 N 
ATOM     24  H   LIG    1        7.912  -0.455   0.792  0.00  0.00    +0.155 HD
BRANCH  23  27
ATOM     25  C   LIG    1        9.622   2.995  -1.222  0.00  0.00    +0.084 A 
ATOM     26  N   LIG    1        8.534   2.292  -0.811  0.00  0.00    -0.214 NA
ATOM     27  C   LIG    1        8.740   1.199  -0.038  0.00  0.00    +0.221 A 
ATOM     28  N   LIG    1        9.950   0.737   0.357  0.00  0.00    -0.214 NA
ATOM     29  C   LIG    1       11.050   1.448  -0.018  0.00  0.00    +0.077 A 
ATOM     30  C   LIG    1       12.321   1.002   0.415  0.00  0.00    +0.028 A 
ATOM     31  C   LIG    1       13.466   1.717   0.076  0.00  0.00    +0.002 A 
ATOM     32  C   LIG    1       13.375   2.880  -0.681  0.00  0.00    +0.001 A 
ATOM     33  C   LIG    1       12.140   3.344  -1.126  0.00  0.00    +0.012 A 
ATOM     34  C   LIG    1       10.948   2.628  -0.821  0.00  0.00    +0.026 A 
BRANCH  25  40
ATOM     35  C   LIG    1        8.207   4.992  -1.817  0.00  0.00    +0.010 A 
ATOM     36  C   LIG    1        7.897   6.077  -2.633  0.00  0.00    +0.001 A 
ATOM     37  C   LIG    1        8.671   6.332  -3.761  0.00  0.00    +0.000 A 
ATOM     38  C   LIG    1        9.748   5.509  -4.078  0.00  0.00    +0.001 A 
ATOM     39  C   LIG    1       10.054   4.427  -3.257  0.00  0.00    +0.010 A 
ATOM     40  C   LIG    1        9.290   4.152  -2.114  0.00  0.00    +0.001 A 
ENDBRANCH  25  40
ENDBRANCH  23  27
ENDBRANCH   1  23
TORSDOF 7
