REMARK  Name = DB16295
REMARK                            x       y       z     vdW  Elec       q    Type
REMARK                         _______ _______ _______ _____ _____    ______ ____
ROOT
ATOM      1  C   LIG    1        1.494  -0.040  -0.080  0.00  0.00    -0.003 A 
ATOM      2  C   LIG    1        2.141   1.022   0.585  0.00  0.00    +0.124 A 
ATOM      3  C   LIG    1        3.549   1.095   0.621  0.00  0.00    -0.003 A 
ATOM      4  C   LIG    1        4.295   0.097  -0.016  0.00  0.00    +0.007 A 
ATOM      5  C   LIG    1        3.665  -0.954  -0.672  0.00  0.00    +0.001 A 
ATOM      6  C   LIG    1        2.277  -1.023  -0.703  0.00  0.00    +0.007 A 
ENDROOT
BRANCH   1   8
ATOM      7  C   LIG    1       -0.604  -0.626   1.238  0.00  0.00    +0.012 C 
ATOM      8  C   LIG    1       -0.045  -0.128  -0.109  0.00  0.00    +0.016 C 
ATOM      9  C   LIG    1       -0.630  -0.946  -1.281  0.00  0.00    +0.012 C 
ENDBRANCH   1   8
BRANCH   2  10
ATOM     10  O   LIG    1        1.386   1.992   1.197  0.00  0.00    -0.506 OA
ATOM     11  H   LIG    1        0.443   1.830   1.119  0.00  0.00    +0.292 HD
ENDBRANCH   2  10
BRANCH   3  12
ATOM     12  C   LIG    1        4.309   2.230   1.328  0.00  0.00    +0.023 C 
ATOM     13  C   LIG    1        4.063   2.252   2.850  0.00  0.00    +0.013 C 
BRANCH  12  14
ATOM     14  C   LIG    1        4.051   3.608   0.679  0.00  0.00    -0.004 C 
ATOM     15  C   LIG    1        5.161   4.625   0.589  0.00  0.00    +0.004 C 
ATOM     16  C   LIG    1        4.657   3.929  -0.664  0.00  0.00    +0.004 C 
ENDBRANCH  12  14
ENDBRANCH   3  12
TORSDOF 4
