REMARK  Name = DB16032
REMARK                            x       y       z     vdW  Elec       q    Type
REMARK                         _______ _______ _______ _____ _____    ______ ____
ROOT
ATOM      1  C   LIG    1        2.105  -0.065  -1.145  0.00  0.00    +0.171 A 
ATOM      2  O   LIG    1        3.462  -0.115  -1.218  0.00  0.00    -0.456 OA
ATOM      3  C   LIG    1        3.812   0.025  -2.525  0.00  0.00    +0.110 A 
ATOM      4  C   LIG    1        2.666   0.165  -3.294  0.00  0.00    +0.046 A 
ATOM      5  C   LIG    1        1.580   0.101  -2.421  0.00  0.00    +0.053 A 
ENDROOT
BRANCH   1   6
ATOM      6  C   LIG    1        1.486  -0.203   0.172  0.00  0.00    +0.205 C 
ATOM      7  O   LIG    1        2.141  -0.532   1.161  0.00  0.00    -0.288 OA
BRANCH   6   8
ATOM      8  C   LIG    1       -0.026   0.046   0.340  0.00  0.00    +0.165 C 
BRANCH   8  10
ATOM      9  O   LIG    1        0.196   2.321  -0.471  0.00  0.00    -0.288 OA
ATOM     10  C   LIG    1       -0.572   1.410  -0.147  0.00  0.00    +0.209 C 
BRANCH  10  11
ATOM     11  C   LIG    1       -2.027   1.585  -0.186  0.00  0.00    +0.217 A 
ATOM     12  N   LIG    1       -2.880   0.625   0.172  0.00  0.00    -0.213 NA
ATOM     13  C   LIG    1       -4.051   1.178  -0.006  0.00  0.00    +0.216 A 
ATOM     14  N   LIG    1       -3.888   2.449  -0.465  0.00  0.00    -0.265 N 
ATOM     15  H   LIG    1       -4.618   3.111  -0.689  0.00  0.00    +0.190 HD
ATOM     16  N   LIG    1       -2.589   2.716  -0.583  0.00  0.00    -0.149 NA
ENDBRANCH  10  11
ENDBRANCH   8  10
ENDBRANCH   6   8
ENDBRANCH   1   6
BRANCH   3  17
ATOM     17  C   LIG    1        5.293   0.010  -2.839  0.00  0.00    +0.109 C 
BRANCH  17  18
ATOM     18  C   LIG    1        6.003  -1.244  -2.342  0.00  0.00    -0.040 A 
ATOM     19  C   LIG    1        5.599  -2.503  -2.797  0.00  0.00    +0.007 A 
ATOM     20  C   LIG    1        6.251  -3.648  -2.348  0.00  0.00    +0.038 A 
ATOM     21  C   LIG    1        7.308  -3.533  -1.448  0.00  0.00    +0.123 A 
ATOM     22  F   LIG    1        7.942  -4.646  -1.012  0.00  0.00    -0.205 F 
ATOM     23  C   LIG    1        7.719  -2.282  -0.994  0.00  0.00    +0.038 A 
ATOM     24  C   LIG    1        7.068  -1.136  -1.442  0.00  0.00    +0.007 A 
ENDBRANCH  17  18
ENDBRANCH   3  17
TORSDOF 6
