REMARK  Name = DB16125
REMARK                            x       y       z     vdW  Elec       q    Type
REMARK                         _______ _______ _______ _____ _____    ______ ____
ROOT
ATOM      1  C   LIG    1       -3.075  -1.267  -0.142  0.00  0.00    +0.140 A 
ATOM      2  N   LIG    1       -2.728  -2.560  -0.404  0.00  0.00    -0.209 NA
ATOM      3  C   LIG    1       -1.404  -2.864  -0.456  0.00  0.00    +0.215 A 
ATOM      4  N   LIG    1       -0.355  -2.017  -0.268  0.00  0.00    -0.194 NA
ATOM      5  C   LIG    1       -0.732  -0.759  -0.008  0.00  0.00    +0.184 A 
ATOM      6  N   LIG    1        0.041   0.360   0.248  0.00  0.00    -0.221 N 
ATOM      7  N   LIG    1       -0.756   1.436   0.421  0.00  0.00    -0.063 NA
ATOM      8  N   LIG    1       -2.073   1.032   0.332  0.00  0.00    -0.126 NA
ATOM      9  C   LIG    1       -2.069  -0.306   0.065  0.00  0.00    +0.160 A 
ENDROOT
BRANCH   1  13
ATOM     10  C   LIG    1       -7.797  -2.504  -0.114  0.00  0.00    +0.086 C 
ATOM     11  C   LIG    1       -6.670  -1.502  -0.068  0.00  0.00    +0.103 A 
ATOM     12  O   LIG    1       -5.409  -2.001  -0.147  0.00  0.00    -0.458 OA
ATOM     13  C   LIG    1       -4.535  -0.958  -0.086  0.00  0.00    +0.156 A 
ATOM     14  C   LIG    1       -5.258   0.223   0.033  0.00  0.00    +0.052 A 
ATOM     15  C   LIG    1       -6.610  -0.122   0.042  0.00  0.00    +0.045 A 
ENDBRANCH   1  13
BRANCH   3  16
ATOM     16  N   LIG    1       -1.085  -4.190  -0.730  0.00  0.00    -0.327 N 
ATOM     17  H   LIG    1       -0.115  -4.464  -0.783  0.00  0.00    +0.145 HD
ATOM     18  H   LIG    1       -1.829  -4.858  -0.873  0.00  0.00    +0.145 HD
ENDBRANCH   3  16
BRANCH   6  19
ATOM     19  C   LIG    1        1.490   0.517   0.241  0.00  0.00    +0.202 C 
BRANCH  19  20
ATOM     20  C   LIG    1        2.042   0.976  -1.101  0.00  0.00    +0.063 A 
ATOM     21  N   LIG    1        2.010   0.064  -2.109  0.00  0.00    -0.252 NA
ATOM     22  C   LIG    1        2.495   0.437  -3.323  0.00  0.00    +0.067 A 
ATOM     23  C   LIG    1        3.028   1.707  -3.566  0.00  0.00    +0.026 A 
ATOM     24  C   LIG    1        3.054   2.631  -2.519  0.00  0.00    +0.004 A 
ATOM     25  C   LIG    1        2.555   2.267  -1.267  0.00  0.00    +0.025 A 
BRANCH  22  26
ATOM     26  C   LIG    1        2.459  -0.612  -4.420  0.00  0.00    +0.215 C 
BRANCH  26  27
ATOM     27  O   LIG    1        3.776  -1.114  -4.619  0.00  0.00    -0.368 OA
BRANCH  27  28
ATOM     28  C   LIG    1        3.938  -1.933  -5.774  0.00  0.00    +0.146 C 
ATOM     29  C   LIG    1        5.310  -2.601  -5.679  0.00  0.00    +0.191 C 
ATOM     30  O   LIG    1        6.191  -1.696  -6.328  0.00  0.00    -0.377 OA
ATOM     31  C   LIG    1        5.508  -1.146  -7.448  0.00  0.00    +0.162 C 
ATOM     32  C   LIG    1        4.028  -1.109  -7.055  0.00  0.00    +0.062 C 
ENDBRANCH  27  28
ENDBRANCH  26  27
ENDBRANCH  22  26
ENDBRANCH  19  20
ENDBRANCH   6  19
TORSDOF 7
