REMARK  Name = DB16854
REMARK                            x       y       z     vdW  Elec       q    Type
REMARK                         _______ _______ _______ _____ _____    ______ ____
ROOT
ATOM      1  C   LIG    1       -0.573   1.398  -0.033  0.00  0.00    +0.002 C 
ATOM      2  C   LIG    1       -1.047   2.031   1.303  0.00  0.00    +0.009 C 
ATOM      3  C   LIG    1       -1.300   3.553   1.262  0.00  0.00    +0.030 C 
ATOM      4  C   LIG    1       -2.538   4.004   0.488  0.00  0.00    -0.077 C 
ATOM      5  C   LIG    1       -3.801   4.144   1.323  0.00  0.00    +0.039 C 
ATOM      6  C   LIG    1       -2.538   4.288  -0.832  0.00  0.00    -0.028 C 
ATOM      7  C   LIG    1       -1.368   4.131  -1.796  0.00  0.00    +0.031 C 
ATOM      8  C   LIG    1       -1.434   2.869  -2.692  0.00  0.00    +0.034 C 
ATOM      9  C   LIG    1       -2.253   1.694  -2.149  0.00  0.00    -0.073 C 
ATOM     10  C   LIG    1       -3.438   1.367  -2.697  0.00  0.00    +0.008 C 
ATOM     11  C   LIG    1       -0.017  -0.050   0.017  0.00  0.00    -0.031 C 
ATOM     12  C   LIG    1       -0.763  -0.304  -1.306  0.00  0.00    +0.014 C 
ATOM     13  C   LIG    1       -0.502  -0.930   1.196  0.00  0.00    +0.011 C 
ATOM     14  C   LIG    1        1.518  -0.134  -0.108  0.00  0.00    +0.011 C 
ATOM     15  C   LIG    1       -1.688   0.882  -0.982  0.00  0.00    +0.019 C 
ENDROOT
TORSDOF 0
