REMARK  Name = DB16867
REMARK                            x       y       z     vdW  Elec       q    Type
REMARK                         _______ _______ _______ _____ _____    ______ ____
ROOT
ATOM      1  O   LIG    1       -0.046  -0.027   0.348  0.00  0.00    -0.340 OA
ENDROOT
BRANCH   1   2
ATOM      2  C   LIG    1       -0.662   1.223   0.514  0.00  0.00    +0.282 C 
ATOM      3  O   LIG    1       -1.252   1.682  -0.678  0.00  0.00    -0.341 OA
ATOM      4  C   LIG    1       -2.277   0.831  -1.215  0.00  0.00    +0.178 C 
ATOM      5  C   LIG    1       -3.441   0.669  -0.202  0.00  0.00    +0.177 C 
ATOM      6  C   LIG    1       -2.900   0.209   1.170  0.00  0.00    +0.179 C 
ATOM      7  C   LIG    1       -1.724   1.105   1.619  0.00  0.00    +0.201 C 
BRANCH   5   8
ATOM      8  O   LIG    1       -4.446  -0.212  -0.674  0.00  0.00    -0.386 OA
ATOM      9  H   LIG    1       -4.074  -1.095  -0.741  0.00  0.00    +0.210 HD
ENDBRANCH   5   8
BRANCH   6  10
ATOM     10  O   LIG    1       -3.924   0.169   2.151  0.00  0.00    -0.386 OA
ATOM     11  H   LIG    1       -4.295   1.050   2.243  0.00  0.00    +0.210 HD
ENDBRANCH   6  10
BRANCH   7  12
ATOM     12  O   LIG    1       -1.151   0.688   2.846  0.00  0.00    -0.384 OA
ATOM     13  H   LIG    1       -1.846   0.313   3.392  0.00  0.00    +0.210 HD
ENDBRANCH   7  12
BRANCH   4  14
ATOM     14  C   LIG    1       -2.694   1.440  -2.573  0.00  0.00    +0.190 C 
BRANCH  14  15
ATOM     15  O   LIG    1       -3.384   0.509  -3.382  0.00  0.00    -0.392 OA
ATOM     16  H   LIG    1       -3.616   0.936  -4.210  0.00  0.00    +0.210 HD
ENDBRANCH  14  15
ENDBRANCH   4  14
ENDBRANCH   1   2
BRANCH   1  17
ATOM     17  C   LIG    1        1.313  -0.051  -0.105  0.00  0.00    +0.183 C 
BRANCH  17  18
ATOM     18  C   LIG    1        1.890  -1.468   0.208  0.00  0.00    +0.176 C 
BRANCH  18  19
ATOM     19  O   LIG    1        1.341  -2.430  -0.678  0.00  0.00    -0.386 OA
ATOM     20  H   LIG    1        0.397  -2.491  -0.514  0.00  0.00    +0.210 HD
ENDBRANCH  18  19
BRANCH  18  21
ATOM     21  C   LIG    1        1.675  -1.957   1.675  0.00  0.00    +0.171 C 
BRANCH  21  22
ATOM     22  O   LIG    1        2.364  -3.187   1.857  0.00  0.00    -0.387 OA
ATOM     23  H   LIG    1        3.305  -3.031   1.748  0.00  0.00    +0.210 HD
ENDBRANCH  21  22
BRANCH  21  24
ATOM     24  C   LIG    1        2.161  -0.972   2.767  0.00  0.00    +0.189 C 
BRANCH  24  25
ATOM     25  O   LIG    1        1.779  -1.403   4.059  0.00  0.00    -0.392 OA
ATOM     26  H   LIG    1        2.080  -0.755   4.700  0.00  0.00    +0.210 HD
ENDBRANCH  24  25
ENDBRANCH  21  24
ENDBRANCH  18  21
ENDBRANCH  17  18
BRANCH  17  27
ATOM     27  C   LIG    1        1.483   0.479  -1.567  0.00  0.00    +0.171 C 
BRANCH  27  28
ATOM     28  O   LIG    1        0.699  -0.261  -2.484  0.00  0.00    -0.387 OA
ATOM     29  H   LIG    1       -0.210  -0.262  -2.174  0.00  0.00    +0.210 HD
ENDBRANCH  27  28
BRANCH  27  30
ATOM     30  C   LIG    1        2.941   0.490  -2.081  0.00  0.00    +0.189 C 
BRANCH  30  31
ATOM     31  O   LIG    1        3.753   1.365  -1.324  0.00  0.00    -0.392 OA
ATOM     32  H   LIG    1        3.911   0.970  -0.463  0.00  0.00    +0.210 HD
ENDBRANCH  30  31
ENDBRANCH  27  30
ENDBRANCH  17  27
ENDBRANCH   1  17
TORSDOF 17
