REMARK  Name = DB16691
REMARK                            x       y       z     vdW  Elec       q    Type
REMARK                         _______ _______ _______ _____ _____    ______ ____
ROOT
ATOM      1  C   LIG    1        1.671   0.045  -0.160  0.00  0.00    +0.166 C 
ATOM      2  C   LIG    1        2.416  -0.552  -1.372  0.00  0.00    +0.030 C 
ATOM      3  C   LIG    1        3.936  -0.736  -1.345  0.00  0.00    -0.025 C 
ATOM      4  C   LIG    1        4.623  -0.900  -2.713  0.00  0.00    +0.011 C 
ATOM      5  C   LIG    1        4.830  -0.002  -0.317  0.00  0.00    +0.011 C 
ATOM      6  C   LIG    1        3.009  -1.863  -0.921  0.00  0.00    +0.018 C 
ATOM      7  C   LIG    1        2.589  -2.075   0.545  0.00  0.00    +0.113 C 
ATOM      8  N   LIG    1        2.045  -0.792   0.993  0.00  0.00    -0.288 N 
ATOM      9  C   LIG    1        2.062  -0.332   2.274  0.00  0.00    +0.237 C 
ATOM     10  O   LIG    1        1.682   0.802   2.568  0.00  0.00    -0.274 OA
ENDROOT
BRANCH   1  13
ATOM     11  N   LIG    1       -0.546  -1.032  -0.366  0.00  0.00    -0.298 N 
ATOM     12  H   LIG    1       -0.014  -1.888  -0.412  0.00  0.00    +0.150 HD
ATOM     13  C   LIG    1        0.138   0.128  -0.339  0.00  0.00    +0.235 C 
ATOM     14  O   LIG    1       -0.405   1.230  -0.411  0.00  0.00    -0.274 OA
BRANCH  11  15
ATOM     15  C   LIG    1       -1.998  -1.178  -0.497  0.00  0.00    +0.177 C 
BRANCH  15  16
ATOM     16  C   LIG    1       -2.734  -0.362   0.491  0.00  0.00    +0.085 C 
ATOM     17  N   LIG    1       -3.312   0.274   1.267  0.00  0.00    -0.195 NA
ENDBRANCH  15  16
BRANCH  15  18
ATOM     18  C   LIG    1       -2.403  -2.670  -0.437  0.00  0.00    +0.050 C 
BRANCH  18  23
ATOM     19  N   LIG    1       -5.226  -3.841  -2.278  0.00  0.00    -0.315 N 
ATOM     20  H   LIG    1       -5.757  -3.930  -3.132  0.00  0.00    +0.149 HD
ATOM     21  C   LIG    1       -5.472  -4.711  -1.138  0.00  0.00    +0.105 C 
ATOM     22  C   LIG    1       -4.306  -4.395  -0.222  0.00  0.00    +0.031 C 
ATOM     23  C   LIG    1       -3.920  -2.968  -0.590  0.00  0.00    +0.079 C 
ATOM     24  C   LIG    1       -4.408  -2.799  -2.040  0.00  0.00    +0.216 C 
ATOM     25  O   LIG    1       -4.134  -1.882  -2.811  0.00  0.00    -0.276 OA
ENDBRANCH  18  23
ENDBRANCH  15  18
ENDBRANCH  11  15
ENDBRANCH   1  13
BRANCH   9  26
ATOM     26  C   LIG    1        2.580  -1.260   3.410  0.00  0.00    +0.165 C 
BRANCH  26  27
ATOM     27  N   LIG    1        4.025  -1.015   3.511  0.00  0.00    -0.296 N 
ATOM     28  H   LIG    1        4.290  -0.046   3.612  0.00  0.00    +0.150 HD
ATOM     29  C   LIG    1        4.992  -1.949   3.459  0.00  0.00    +0.318 C 
ATOM     30  O   LIG    1        4.752  -3.153   3.357  0.00  0.00    -0.266 OA
BRANCH  29  31
ATOM     31  C   LIG    1        6.450  -1.471   3.569  0.00  0.00    +0.469 C 
ATOM     32  F   LIG    1        7.178  -2.041   2.608  0.00  0.00    -0.162 F 
ATOM     33  F   LIG    1        6.939  -1.839   4.753  0.00  0.00    -0.162 F 
ATOM     34  F   LIG    1        6.539  -0.142   3.456  0.00  0.00    -0.162 F 
ENDBRANCH  29  31
ENDBRANCH  26  27
BRANCH  26  35
ATOM     35  C   LIG    1        1.834  -1.156   4.801  0.00  0.00    -0.011 C 
ATOM     36  C   LIG    1        2.184   0.138   5.586  0.00  0.00    +0.013 C 
ATOM     37  C   LIG    1        0.293  -1.259   4.645  0.00  0.00    +0.013 C 
ATOM     38  C   LIG    1        2.273  -2.350   5.690  0.00  0.00    +0.013 C 
ENDBRANCH  26  35
ENDBRANCH   9  26
TORSDOF 9
