REMARK  Name = DB16262
REMARK                            x       y       z     vdW  Elec       q    Type
REMARK                         _______ _______ _______ _____ _____    ______ ____
ROOT
ATOM      1  C   LIG    1        1.470   0.059  -0.205  0.00  0.00    +0.073 A 
ATOM      2  N   LIG    1        2.090  -1.017  -0.760  0.00  0.00    -0.231 NA
ATOM      3  C   LIG    1        3.450  -1.076  -0.816  0.00  0.00    +0.135 A 
ATOM      4  C   LIG    1        4.261  -0.035  -0.304  0.00  0.00    +0.078 A 
ATOM      5  C   LIG    1        3.603   1.067   0.272  0.00  0.00    +0.018 A 
ATOM      6  C   LIG    1        2.213   1.118   0.325  0.00  0.00    +0.029 A 
ENDROOT
BRANCH   3   7
ATOM      7  N   LIG    1        3.957  -2.184  -1.522  0.00  0.00    -0.309 N 
ATOM      8  C   LIG    1        4.209  -2.200  -2.979  0.00  0.00    +0.031 C 
ATOM      9  C   LIG    1        5.211  -1.111  -3.435  0.00  0.00    +0.031 C 
ATOM     10  C   LIG    1        2.898  -2.012  -3.790  0.00  0.00    +0.031 C 
ATOM     11  C   LIG    1        4.808  -3.597  -3.247  0.00  0.00    +0.030 C 
ATOM     12  C   LIG    1        4.250  -4.517  -2.164  0.00  0.00    +0.005 C 
ATOM     13  C   LIG    1        3.357  -5.639  -2.717  0.00  0.00    +0.009 C 
ATOM     14  C   LIG    1        3.514  -3.551  -1.235  0.00  0.00    +0.110 C 
ENDBRANCH   3   7
BRANCH   1  17
ATOM     15  C   LIG    1       -2.168   1.225  -0.066  0.00  0.00    +0.124 A 
ATOM     16  C   LIG    1       -0.771   1.222  -0.092  0.00  0.00    +0.055 A 
ATOM     17  C   LIG    1       -0.029   0.033  -0.183  0.00  0.00    +0.007 A 
ATOM     18  C   LIG    1       -0.742  -1.174  -0.256  0.00  0.00    +0.048 A 
ATOM     19  C   LIG    1       -2.135  -1.193  -0.234  0.00  0.00    +0.127 A 
ATOM     20  F   LIG    1       -2.796  -2.370  -0.303  0.00  0.00    -0.205 F 
ATOM     21  C   LIG    1       -2.847  -0.001  -0.138  0.00  0.00    +0.084 A 
BRANCH  15  22
ATOM     22  O   LIG    1       -2.784   2.458   0.028  0.00  0.00    -0.492 OA
BRANCH  22  23
ATOM     23  C   LIG    1       -4.208   2.528   0.075  0.00  0.00    +0.232 C 
BRANCH  23  25
ATOM     24  C   LIG    1       -4.100   4.641   1.514  0.00  0.00    +0.010 C 
ATOM     25  C   LIG    1       -4.651   3.998   0.226  0.00  0.00    +0.020 C 
ATOM     26  C   LIG    1       -6.183   4.132   0.154  0.00  0.00    +0.010 C 
ENDBRANCH  23  25
ENDBRANCH  22  23
ENDBRANCH  15  22
ENDBRANCH   1  17
BRANCH   4  27
ATOM     27  C   LIG    1        5.778  -0.101  -0.311  0.00  0.00    +0.266 C 
ATOM     28  N   LIG    1        6.361   1.037  -0.606  0.00  0.00    -0.181 N 
ATOM     29  H   LIG    1        5.816   1.849  -0.723  0.00  0.00    +0.177 HD
ATOM     30  O   LIG    1        6.328  -1.182  -0.078  0.00  0.00    -0.268 OA
BRANCH  28  31
ATOM     31  S   LIG    1        7.920   1.115  -0.773  0.00  0.00    +0.075 S 
ATOM     32  O   LIG    1        8.465   0.217  -1.800  0.00  0.00    -0.150 OA
ATOM     33  O   LIG    1        8.645   1.218   0.500  0.00  0.00    -0.150 OA
BRANCH  31  34
ATOM     34  C   LIG    1        8.016   2.754  -1.500  0.00  0.00    +0.109 A 
ATOM     35  C   LIG    1        8.141   3.879  -0.679  0.00  0.00    +0.029 A 
ATOM     36  C   LIG    1        8.173   5.151  -1.244  0.00  0.00    +0.002 A 
ATOM     37  C   LIG    1        8.069   5.295  -2.627  0.00  0.00    +0.000 A 
ATOM     38  C   LIG    1        7.929   4.179  -3.449  0.00  0.00    +0.002 A 
ATOM     39  C   LIG    1        7.898   2.906  -2.885  0.00  0.00    +0.029 A 
ENDBRANCH  31  34
ENDBRANCH  28  31
ENDBRANCH   4  27
TORSDOF 8
