REMARK  Name = DB16683
REMARK                            x       y       z     vdW  Elec       q    Type
REMARK                         _______ _______ _______ _____ _____    ______ ____
ROOT
ATOM      1  C   LIG    1        1.360  -0.209  -0.033  0.00  0.00    -0.045 A 
ATOM      2  C   LIG    1        1.936  -0.707   1.139  0.00  0.00    +0.052 A 
ATOM      3  C   LIG    1        3.291  -1.042   1.171  0.00  0.00    +0.159 A 
ATOM      4  C   LIG    1        4.085  -0.880   0.030  0.00  0.00    +0.173 A 
ATOM      5  C   LIG    1        3.503  -0.390  -1.145  0.00  0.00    +0.050 A 
ATOM      6  C   LIG    1        2.149  -0.055  -1.176  0.00  0.00    +0.007 A 
ENDROOT
BRANCH   3   7
ATOM      7  O   LIG    1        3.837  -1.525   2.333  0.00  0.00    -0.503 OA
ATOM      8  H   LIG    1        4.774  -1.717   2.241  0.00  0.00    +0.292 HD
ENDBRANCH   3   7
BRANCH   1   9
ATOM      9  C   LIG    1       -0.114   0.175  -0.064  0.00  0.00    +0.030 C 
BRANCH   9  10
ATOM     10  CA  LIG    1       -0.352   1.699   0.078  0.00  0.00    +0.040 C 
BRANCH  10  11
ATOM     11  N   LIG    1        0.095   2.149   1.481  0.00  0.00    +0.387 N 
ATOM     12  H1  LIG    1       -0.448   1.673   2.187  0.00  0.00    -0.089 HD
ATOM     13  H2  LIG    1        1.070   1.924   1.618  0.00  0.00    -0.089 HD
ATOM     14  H3  LIG    1       -0.025   3.147   1.582  0.00  0.00    -0.089 HD
ENDBRANCH  10  11
BRANCH  10  15
ATOM     15  C   LIG    1       -1.843   2.074  -0.128  0.00  0.00    +0.290 C 
ATOM     16  OXT LIG    1       -2.249   2.074  -1.311  0.00  0.00    -0.253 OA
BRANCH  15  17
ATOM     17  O   LIG    1       -2.575   2.338   0.857  0.00  0.00    -0.482 OA
ATOM     18  H   LIG    1       -3.475   2.563   0.725  0.00  0.00    +0.295 HD
ENDBRANCH  15  17
ENDBRANCH  10  15
ENDBRANCH   9  10
ENDBRANCH   1   9
BRANCH   4  19
ATOM     19  O   LIG    1        5.414  -1.216   0.090  0.00  0.00    -0.400 OA
BRANCH  19  20
ATOM     20  P   LIG    1        6.720  -0.824  -1.025  0.00  0.00    +0.528 P 
ATOM     21  O   LIG    1        6.534   0.659  -1.396  0.00  0.00    -0.216 OA
BRANCH  20  22
ATOM     22  O   LIG    1        6.541  -1.772  -2.225  0.00  0.00    -0.293 OA
ATOM     23  H   LIG    1        6.669  -2.688  -1.935  0.00  0.00    +0.223 HD
ENDBRANCH  20  22
BRANCH  20  24
ATOM     24  O   LIG    1        8.020  -1.084  -0.242  0.00  0.00    -0.293 OA
ATOM     25  H   LIG    1        8.089  -2.029  -0.034  0.00  0.00    +0.223 HD
ENDBRANCH  20  24
ENDBRANCH  19  20
ENDBRANCH   4  19
TORSDOF 10
