REMARK  Name = DB16022
REMARK                            x       y       z     vdW  Elec       q    Type
REMARK                         _______ _______ _______ _____ _____    ______ ____
ROOT
ATOM      1  N   LIG    1        0.097  -0.092  -0.059  0.00  0.00    -0.310 N 
ENDROOT
BRANCH   1   2
ATOM      2  C   LIG    1       -0.734  -1.241   0.062  0.00  0.00    +0.122 A 
ATOM      3  N   LIG    1       -2.085  -1.053   0.143  0.00  0.00    -0.240 NA
ATOM      4  C   LIG    1       -2.904  -2.127   0.260  0.00  0.00    +0.113 A 
ATOM      5  C   LIG    1       -2.427  -3.435   0.299  0.00  0.00    +0.020 A 
ATOM      6  C   LIG    1       -1.052  -3.640   0.212  0.00  0.00    +0.005 A 
ATOM      7  C   LIG    1       -0.198  -2.543   0.092  0.00  0.00    +0.043 A 
ENDBRANCH   1   2
BRANCH   1   8
ATOM      8  C   LIG    1        1.560  -0.195  -0.041  0.00  0.00    +0.122 C 
BRANCH   8   9
ATOM      9  C   LIG    1        2.153  -0.497  -1.434  0.00  0.00    +0.102 C 
BRANCH   9  10
ATOM     10  N   LIG    1        3.619  -0.469  -1.439  0.00  0.00    -0.307 NA
ATOM     11  C   LIG    1        4.108  -0.551  -2.812  0.00  0.00    +0.104 C 
ATOM     12  C   LIG    1        4.198  -1.563  -0.660  0.00  0.00    +0.104 C 
ENDBRANCH   9  10
ENDBRANCH   8   9
ENDBRANCH   1   8
BRANCH   1  13
ATOM     13  C   LIG    1       -0.485   1.252  -0.168  0.00  0.00    +0.142 C 
BRANCH  13  14
ATOM     14  C   LIG    1       -0.500   2.009   1.147  0.00  0.00    -0.023 A 
ATOM     15  C   LIG    1       -1.208   1.623   2.284  0.00  0.00    +0.050 A 
ATOM     16  S   LIG    1       -1.044   2.721   3.615  0.00  0.00    -0.105 S 
ATOM     17  C   LIG    1       -0.040   3.745   2.650  0.00  0.00    +0.045 A 
ATOM     18  C   LIG    1        0.142   3.239   1.371  0.00  0.00    +0.013 A 
ENDBRANCH  13  14
ENDBRANCH   1  13
TORSDOF 6
