REMARK  Name = DB16081
REMARK                            x       y       z     vdW  Elec       q    Type
REMARK                         _______ _______ _______ _____ _____    ______ ____
ROOT
ATOM      1  C   LIG    1        1.634   0.370  -1.166  0.00  0.00    +0.131 A 
ATOM      2  C   LIG    1        2.523   1.011  -2.023  0.00  0.00    +0.056 A 
ATOM      3  C   LIG    1        3.901   0.923  -1.775  0.00  0.00    +0.004 A 
ATOM      4  C   LIG    1        5.049   1.453  -2.428  0.00  0.00    +0.028 A 
ATOM      5  C   LIG    1        6.140   1.030  -1.711  0.00  0.00    +0.096 A 
ATOM      6  N   LIG    1        5.768   0.249  -0.622  0.00  0.00    -0.271 N 
ATOM      7  C   LIG    1        6.685  -0.337   0.326  0.00  0.00    +0.324 C 
ATOM      8  N   LIG    1        7.988  -0.044   0.089  0.00  0.00    -0.250 N 
ATOM      9  H   LIG    1        8.197   0.513  -0.727  0.00  0.00    +0.158 HD
ATOM     10  O   LIG    1        6.274  -1.028   1.259  0.00  0.00    -0.249 OA
ATOM     11  C   LIG    1        4.370   0.167  -0.651  0.00  0.00    +0.058 A 
ATOM     12  C   LIG    1        3.464  -0.493   0.198  0.00  0.00    +0.030 A 
ATOM     13  C   LIG    1        2.104  -0.377  -0.086  0.00  0.00    +0.048 A 
ENDROOT
BRANCH   8  14
ATOM     14  C   LIG    1        9.086  -0.446   0.839  0.00  0.00    +0.149 A 
ATOM     15  C   LIG    1       10.410  -0.162   0.488  0.00  0.00    +0.077 A 
ATOM     16  C   LIG    1       11.222  -0.701   1.475  0.00  0.00    +0.143 A 
ATOM     17  N   LIG    1       10.325  -1.293   2.338  0.00  0.00    -0.261 N 
ATOM     18  C   LIG    1       10.595  -1.974   3.597  0.00  0.00    +0.173 C 
ATOM     19  N   LIG    1        9.047  -1.121   1.972  0.00  0.00    -0.156 NA
BRANCH  16  20
ATOM     20  C   LIG    1       12.727  -0.708   1.666  0.00  0.00    +0.434 C 
ATOM     21  F   LIG    1       13.215  -1.947   1.603  0.00  0.00    -0.164 F 
ATOM     22  F   LIG    1       13.069  -0.189   2.845  0.00  0.00    -0.164 F 
ATOM     23  F   LIG    1       13.336   0.009   0.721  0.00  0.00    -0.164 F 
ENDBRANCH  16  20
ENDBRANCH   8  14
BRANCH   1  24
ATOM     24  O   LIG    1        0.282   0.462  -1.417  0.00  0.00    -0.438 OA
BRANCH  24  29
ATOM     25  C   LIG    1       -2.795   1.776   0.058  0.00  0.00    +0.031 A 
ATOM     26  N   LIG    1       -2.310   2.494   1.111  0.00  0.00    -0.242 NA
ATOM     27  C   LIG    1       -0.961   2.502   1.264  0.00  0.00    +0.225 A 
ATOM     28  N   LIG    1       -0.063   1.863   0.473  0.00  0.00    -0.201 NA
ATOM     29  C   LIG    1       -0.575   1.143  -0.570  0.00  0.00    +0.223 A 
ATOM     30  C   LIG    1       -1.951   1.076  -0.812  0.00  0.00    +0.089 A 
BRANCH  25  31
ATOM     31  C   LIG    1       -4.309   1.725  -0.141  0.00  0.00    -0.026 C 
BRANCH  31  33
ATOM     32  C   LIG    1       -4.982   4.217  -0.120  0.00  0.00    -0.100 C 
ATOM     33  N   LIG    1       -5.147   2.833   0.526  0.00  0.00    +0.381 N 
ATOM     34  H   LIG    1       -6.122   2.572   0.482  0.00  0.00    -0.086 HD
ATOM     35  H   LIG    1       -4.889   2.890   1.501  0.00  0.00    -0.086 HD
ENDBRANCH  31  33
ENDBRANCH  25  31
ENDBRANCH  24  29
ENDBRANCH   1  24
TORSDOF 6
