REMARK  Name = DB16106
REMARK                            x       y       z     vdW  Elec       q    Type
REMARK                         _______ _______ _______ _____ _____    ______ ____
ROOT
ATOM      1  C   LIG    1       -1.668  -1.670  -0.016  0.00  0.00    +0.055 A 
ATOM      2  C   LIG    1       -2.361  -0.516   0.384  0.00  0.00    +0.080 A 
ATOM      3 CL   LIG    1       -3.934  -0.588   1.104  0.00  0.00    -0.080 Cl
ATOM      4  C   LIG    1       -1.754   0.726   0.191  0.00  0.00    +0.134 A 
ATOM      5  N   LIG    1       -0.526   0.870  -0.364  0.00  0.00    -0.239 NA
ATOM      6  C   LIG    1        0.146  -0.247  -0.753  0.00  0.00    +0.126 A 
ATOM      7  C   LIG    1       -0.398  -1.525  -0.592  0.00  0.00    +0.068 A 
ENDROOT
BRANCH   1   8
ATOM      8  N   LIG    1       -2.247  -2.938   0.159  0.00  0.00    -0.313 N 
ATOM      9  H   LIG    1       -2.653  -3.079   1.074  0.00  0.00    +0.152 HD
BRANCH   8  11
ATOM     10  C   LIG    1       -2.620  -5.364  -0.125  0.00  0.00    +0.060 A 
ATOM     11  C   LIG    1       -2.225  -4.100  -0.642  0.00  0.00    +0.044 A 
ATOM     12  C   LIG    1       -1.852  -3.997  -1.991  0.00  0.00    +0.024 A 
ATOM     13  C   LIG    1       -1.842  -5.112  -2.823  0.00  0.00    +0.002 A 
ATOM     14  C   LIG    1       -2.212  -6.352  -2.321  0.00  0.00    +0.001 A 
ATOM     15  C   LIG    1       -2.598  -6.475  -0.990  0.00  0.00    +0.015 A 
BRANCH  10  18
ATOM     16  N   LIG    1       -3.923  -6.561   1.551  0.00  0.00    -0.191 N 
ATOM     17  H   LIG    1       -4.162  -7.286   0.890  0.00  0.00    +0.183 HD
ATOM     18  C   LIG    1       -3.036  -5.567   1.326  0.00  0.00    +0.268 C 
ATOM     19  O   LIG    1       -2.592  -4.847   2.225  0.00  0.00    -0.268 OA
BRANCH  16  21
ATOM     20  C   LIG    1       -5.436  -6.140   3.254  0.00  0.00    +0.226 C 
ATOM     21  O   LIG    1       -4.293  -6.889   2.858  0.00  0.00    -0.283 OA
ENDBRANCH  16  21
ENDBRANCH  10  18
ENDBRANCH   8  11
ENDBRANCH   1   8
BRANCH   6  22
ATOM     22  N   LIG    1        1.424  -0.147  -1.328  0.00  0.00    -0.285 N 
ATOM     23  H   LIG    1        1.804  -1.049  -1.577  0.00  0.00    +0.155 HD
BRANCH  22  24
ATOM     24  C   LIG    1        2.182   0.981  -1.565  0.00  0.00    +0.123 A 
ATOM     25  N   LIG    1        3.490   0.905  -2.000  0.00  0.00    -0.248 N 
ATOM     26  N   LIG    1        4.063   2.118  -2.114  0.00  0.00    -0.175 NA
ATOM     27  C   LIG    1        3.129   2.992  -1.817  0.00  0.00    +0.062 A 
ATOM     28  C   LIG    1        3.429   4.471  -1.870  0.00  0.00    +0.067 C 
ATOM     29  C   LIG    1        1.939   2.345  -1.474  0.00  0.00    +0.068 A 
BRANCH  25  30
ATOM     30  C   LIG    1        4.303  -0.307  -2.214  0.00  0.00    +0.103 C 
ATOM     31  C   LIG    1        5.266  -0.160  -3.414  0.00  0.00    +0.032 C 
ATOM     32  C   LIG    1        5.044  -0.669  -0.913  0.00  0.00    +0.032 C 
ENDBRANCH  25  30
ENDBRANCH  22  24
ENDBRANCH   6  22
TORSDOF 7
