REMARK  Name = DB16236
REMARK                            x       y       z     vdW  Elec       q    Type
REMARK                         _______ _______ _______ _____ _____    ______ ____
ROOT
ATOM      1  C   LIG    1        1.482   0.185   0.273  0.00  0.00    +0.037 A 
ATOM      2  C   LIG    1        2.171  -0.635   1.175  0.00  0.00    +0.015 A 
ATOM      3  C   LIG    1        3.548  -0.803   1.068  0.00  0.00    +0.025 A 
ATOM      4  C   LIG    1        4.258  -0.162   0.047  0.00  0.00    +0.048 A 
ATOM      5  C   LIG    1        3.573   0.634  -0.870  0.00  0.00    +0.025 A 
ATOM      6  C   LIG    1        2.195   0.803  -0.764  0.00  0.00    +0.015 A 
ENDROOT
BRANCH   1   8
ATOM      7  O   LIG    1       -0.665  -0.709   0.641  0.00  0.00    -0.270 OA
ATOM      8  C   LIG    1       -0.024   0.313   0.380  0.00  0.00    +0.247 C 
ATOM      9  N   LIG    1       -0.628   1.518   0.160  0.00  0.00    -0.295 N 
ATOM     10  C   LIG    1        0.086   2.811   0.246  0.00  0.00    +0.123 C 
ATOM     11  C   LIG    1       -0.522   3.656   1.392  0.00  0.00    +0.103 C 
ATOM     12  N   LIG    1       -1.978   3.793   1.275  0.00  0.00    -0.299 NA
ATOM     13  C   LIG    1       -2.610   2.470   1.273  0.00  0.00    +0.103 C 
ATOM     14  C   LIG    1       -2.104   1.599   0.103  0.00  0.00    +0.123 C 
BRANCH  12  15
ATOM     15  C   LIG    1       -2.552   4.606   2.354  0.00  0.00    +0.088 C 
BRANCH  15  16
ATOM     16  C   LIG    1       -2.212   6.105   2.233  0.00  0.00    +0.003 C 
ATOM     17  C   LIG    1       -2.257   6.999   3.440  0.00  0.00    +0.005 C 
ATOM     18  C   LIG    1       -0.925   6.672   2.771  0.00  0.00    +0.005 C 
ENDBRANCH  15  16
ENDBRANCH  12  15
ENDBRANCH   1   8
BRANCH   4  19
ATOM     19  N   LIG    1        5.643  -0.312  -0.124  0.00  0.00    -0.216 N 
ATOM     20  H   LIG    1        6.024  -0.119  -1.039  0.00  0.00    +0.174 HD
BRANCH  19  21
ATOM     21  S   LIG    1        6.749  -0.986   1.095  0.00  0.00    +0.074 S 
ATOM     22  O   LIG    1        6.332  -0.461   2.401  0.00  0.00    -0.150 OA
ATOM     23  O   LIG    1        8.111  -0.758   0.603  0.00  0.00    -0.150 OA
BRANCH  21  24
ATOM     24  C   LIG    1        6.473  -2.766   1.072  0.00  0.00    +0.134 A 
ATOM     25  C   LIG    1        6.640  -3.537  -0.119  0.00  0.00    +0.097 A 
ATOM     26  N   LIG    1        7.013  -2.927  -1.284  0.00  0.00    -0.253 NA
ATOM     27  C   LIG    1        7.161  -3.678  -2.401  0.00  0.00    +0.111 A 
ATOM     28  C   LIG    1        6.950  -5.052  -2.434  0.00  0.00    +0.020 A 
ATOM     29  C   LIG    1        6.568  -5.699  -1.263  0.00  0.00    +0.011 A 
ATOM     30  C   LIG    1        6.404  -4.948  -0.071  0.00  0.00    +0.002 A 
ATOM     31  C   LIG    1        6.017  -5.550   1.149  0.00  0.00    +0.010 A 
ATOM     32  C   LIG    1        5.870  -4.775   2.294  0.00  0.00    +0.003 A 
ATOM     33  C   LIG    1        6.096  -3.404   2.257  0.00  0.00    +0.031 A 
ENDBRANCH  21  24
ENDBRANCH  19  21
ENDBRANCH   4  19
TORSDOF 6
