REMARK  Name = DB16909
REMARK                            x       y       z     vdW  Elec       q    Type
REMARK                         _______ _______ _______ _____ _____    ______ ____
ROOT
ATOM      1  C   LIG    1       -1.556   3.393  -0.345  0.00  0.00    +0.139 A 
ATOM      2  C   LIG    1       -2.890   2.986  -0.260  0.00  0.00    +0.084 A 
ATOM      3 CL   LIG    1       -4.159   4.159  -0.318  0.00  0.00    -0.080 Cl
ATOM      4  C   LIG    1       -3.237   1.641  -0.127  0.00  0.00    +0.050 A 
ATOM      5  C   LIG    1       -2.194   0.711  -0.082  0.00  0.00    +0.048 A 
ATOM      6  N   LIG    1       -2.214  -0.658   0.047  0.00  0.00    -0.360 N 
ATOM      7  H   LIG    1       -3.021  -1.258   0.137  0.00  0.00    +0.165 HD
ATOM      8  C   LIG    1       -0.932  -1.141   0.045  0.00  0.00    +0.087 A 
ATOM      9  C   LIG    1       -0.022  -0.108  -0.085  0.00  0.00    -0.018 A 
ATOM     10  C   LIG    1       -0.821   1.093  -0.172  0.00  0.00    +0.007 A 
ATOM     11  C   LIG    1       -0.520   2.458  -0.311  0.00  0.00    +0.057 A 
ENDROOT
BRANCH   1  13
ATOM     12  C   LIG    1       -0.916   5.364   0.750  0.00  0.00    +0.277 C 
ATOM     13  O   LIG    1       -1.244   4.723  -0.476  0.00  0.00    -0.494 OA
ENDBRANCH   1  13
BRANCH   9  14
ATOM     14  C   LIG    1        1.497  -0.224  -0.115  0.00  0.00    +0.035 C 
ATOM     15  C   LIG    1        2.063   0.235  -1.471  0.00  0.00    +0.014 C 
BRANCH  14  16
ATOM     16  C   LIG    1        2.184   0.507   1.067  0.00  0.00    +0.112 C 
BRANCH  16  17
ATOM     17  N   LIG    1        1.776   0.015   2.385  0.00  0.00    -0.315 N 
ATOM     18  H   LIG    1        2.250  -0.813   2.715  0.00  0.00    +0.149 HD
ATOM     19  C   LIG    1        0.860   0.587   3.186  0.00  0.00    +0.210 C 
ATOM     20  O   LIG    1        0.245   1.615   2.905  0.00  0.00    -0.276 OA
ATOM     21  C   LIG    1        0.591  -0.111   4.515  0.00  0.00    +0.109 C 
ENDBRANCH  16  17
ENDBRANCH  14  16
ENDBRANCH   9  14
TORSDOF 4
