REMARK  Name = DB16930
REMARK                            x       y       z     vdW  Elec       q    Type
REMARK                         _______ _______ _______ _____ _____    ______ ____
ROOT
ATOM      1  C   LIG    1        1.370  -0.166  -0.019  0.00  0.00    +0.251 C 
ENDROOT
BRANCH   1   2
ATOM      2  C   LIG    1       -0.149  -0.174   0.223  0.00  0.00    +0.280 C 
BRANCH   2   3
ATOM      3  O   LIG    1       -0.659   1.147   0.074  0.00  0.00    -0.457 OA
BRANCH   3   5
ATOM      4  O   LIG    1       -2.826   0.546   0.463  0.00  0.00    -0.245 OA
ATOM      5  C   LIG    1       -1.980   1.413   0.223  0.00  0.00    +0.339 C 
BRANCH   5   6
ATOM      6  C   LIG    1       -2.312   2.866   0.047  0.00  0.00    +0.059 A 
ATOM      7  C   LIG    1       -3.655   3.272   0.084  0.00  0.00    +0.015 A 
ATOM      8  C   LIG    1       -3.994   4.613  -0.074  0.00  0.00    +0.001 A 
ATOM      9  C   LIG    1       -2.992   5.560  -0.267  0.00  0.00    +0.000 A 
ATOM     10  C   LIG    1       -1.655   5.177  -0.303  0.00  0.00    +0.001 A 
ATOM     11  C   LIG    1       -1.314   3.836  -0.146  0.00  0.00    +0.015 A 
ENDBRANCH   5   6
ENDBRANCH   3   5
ENDBRANCH   2   3
ENDBRANCH   1   2
BRANCH   1  12
ATOM     12  O   LIG    1        1.992   0.525   1.067  0.00  0.00    -0.451 OA
BRANCH  12  13
ATOM     13  C   LIG    1        3.241   1.059   0.974  0.00  0.00    +0.340 C 
ATOM     14  O   LIG    1        3.939   0.984  -0.042  0.00  0.00    -0.245 OA
BRANCH  13  15
ATOM     15  C   LIG    1        3.687   1.740   2.235  0.00  0.00    +0.059 A 
ATOM     16  C   LIG    1        4.978   2.286   2.299  0.00  0.00    +0.015 A 
ATOM     17  C   LIG    1        5.418   2.928   3.453  0.00  0.00    +0.001 A 
ATOM     18  C   LIG    1        4.571   3.030   4.552  0.00  0.00    +0.000 A 
ATOM     19  C   LIG    1        3.287   2.496   4.508  0.00  0.00    +0.001 A 
ATOM     20  C   LIG    1        2.845   1.853   3.354  0.00  0.00    +0.015 A 
ENDBRANCH  13  15
ENDBRANCH  12  13
ENDBRANCH   1  12
BRANCH   1  21
ATOM     21  C   LIG    1        1.953  -1.589  -0.173  0.00  0.00    +0.280 C 
BRANCH  21  22
ATOM     22  O   LIG    1        1.613  -2.402   0.945  0.00  0.00    -0.457 OA
BRANCH  22  23
ATOM     23  C   LIG    1        2.033  -3.689   1.032  0.00  0.00    +0.339 C 
ATOM     24  O   LIG    1        2.713  -4.242   0.163  0.00  0.00    -0.245 OA
BRANCH  23  25
ATOM     25  C   LIG    1        1.589  -4.373   2.293  0.00  0.00    +0.059 A 
ATOM     26  C   LIG    1        1.960  -5.707   2.515  0.00  0.00    +0.015 A 
ATOM     27  C   LIG    1        1.566  -6.368   3.675  0.00  0.00    +0.001 A 
ATOM     28  C   LIG    1        0.797  -5.699   4.624  0.00  0.00    +0.000 A 
ATOM     29  C   LIG    1        0.420  -4.375   4.421  0.00  0.00    +0.001 A 
ATOM     30  C   LIG    1        0.813  -3.713   3.261  0.00  0.00    +0.015 A 
ENDBRANCH  23  25
ENDBRANCH  22  23
ENDBRANCH  21  22
ENDBRANCH   1  21
TORSDOF 11
