REMARK  Name = DB16956
REMARK                            x       y       z     vdW  Elec       q    Type
REMARK                         _______ _______ _______ _____ _____    ______ ____
ROOT
ATOM      1  CA  LEU A  1        1.535  -0.027  -0.096  0.00  0.00    +0.182 C 
ENDROOT
BRANCH   1   2
ATOM      2  N   LEU A  1        2.243   0.611  -1.219  0.00  0.00    -0.303 N 
ATOM      3  H   LEU A  1        2.521  -0.019  -1.958  0.00  0.00    +0.149 HD
ATOM      4  C   UNK A  0        2.582   1.908  -1.310  0.00  0.00    +0.211 C 
ATOM      5  O   UNK A  0        2.347   2.740  -0.435  0.00  0.00    -0.276 OA
ATOM      6  C   UNK A  0        3.311   2.333  -2.580  0.00  0.00    +0.109 C 
ENDBRANCH   1   2
BRANCH   1   7
ATOM      7  C   LEU A  1        1.951  -1.547  -0.042  0.00  0.00    +0.325 C 
ATOM      8  OXT LEU A  1        2.301  -1.948   1.093  0.00  0.00    -0.249 OA
BRANCH   7   9
ATOM      9  O   LEU A  1        1.854  -2.201  -1.110  0.00  0.00    -0.479 OA
ATOM     10  H   LEU A  1        2.090  -3.108  -1.127  0.00  0.00    +0.295 HD
ENDBRANCH   7   9
ENDBRANCH   1   7
BRANCH   1  11
ATOM     11  CB  LEU A  1       -0.016   0.038  -0.292  0.00  0.00    +0.036 C 
BRANCH  11  13
ATOM     12  CD1 LEU A  1       -0.457   1.865   1.461  0.00  0.00    +0.007 C 
ATOM     13  CG  LEU A  1       -0.678   1.404   0.003  0.00  0.00    -0.015 C 
ATOM     14  CD2 LEU A  1       -2.174   1.387  -0.383  0.00  0.00    +0.007 C 
ENDBRANCH  11  13
ENDBRANCH   1  11
TORSDOF 5
