REMARK  Name = DB16290
REMARK                            x       y       z     vdW  Elec       q    Type
REMARK                         _______ _______ _______ _____ _____    ______ ____
ROOT
ATOM      1  C   UNK A  2        0.487   0.032   0.530  0.00  0.00    +0.187 C 
ENDROOT
BRANCH   1   4
ATOM      2  N   UNK A  2       -0.866   1.684  -0.651  0.00  0.00    -0.302 N 
ATOM      3  H   UNK A  2       -0.961   0.968  -1.356  0.00  0.00    +0.150 HD
ATOM      4  C   UNK A  2       -0.158   1.427   0.459  0.00  0.00    +0.236 C 
ATOM      5  O   UNK A  2        0.029   2.235   1.370  0.00  0.00    -0.274 OA
BRANCH   2   6
ATOM      6  C   UNK A  2       -1.509   2.966  -0.945  0.00  0.00    +0.168 C 
BRANCH   6   9
ATOM      7  N   UNK A  2       -3.033   4.294   0.420  0.00  0.00    -0.302 N 
ATOM      8  H   UNK A  2       -2.338   5.021   0.329  0.00  0.00    +0.150 HD
ATOM      9  C   UNK A  2       -2.824   3.104  -0.165  0.00  0.00    +0.234 C 
ATOM     10  O   UNK A  2       -3.611   2.158  -0.124  0.00  0.00    -0.274 OA
BRANCH   7  11
ATOM     11  C   UNK A  2       -4.234   4.651   1.173  0.00  0.00    +0.163 C 
BRANCH  11  14
ATOM     12  N   UNK A  2       -6.602   4.403   0.624  0.00  0.00    -0.300 N 
ATOM     13  H   UNK A  2       -6.650   3.862   1.474  0.00  0.00    +0.150 HD
ATOM     14  C   UNK A  2       -5.426   4.923   0.238  0.00  0.00    +0.234 C 
ATOM     15  O   UNK A  2       -5.261   5.600  -0.778  0.00  0.00    -0.274 OA
BRANCH  12  16
ATOM     16  C   UNK A  2       -7.870   4.584  -0.086  0.00  0.00    +0.187 C 
BRANCH  16  17
ATOM     17  C   UNK A  2       -8.440   6.005   0.133  0.00  0.00    +0.233 C 
ATOM     18  O   UNK A  2       -8.530   6.471   1.268  0.00  0.00    -0.274 OA
ATOM     19  N   UNK A  2       -8.845   6.666  -0.955  0.00  0.00    -0.328 N 
ATOM     20  H   UNK A  2       -9.232   7.594  -0.866  0.00  0.00    +0.145 HD
ATOM     21  H   UNK A  2       -8.759   6.249  -1.871  0.00  0.00    +0.145 HD
ENDBRANCH  16  17
BRANCH  16  23
ATOM     22  C   UNK A  2      -10.323   3.669  -0.200  0.00  0.00    +0.040 C 
ATOM     23  C   UNK A  2       -8.915   3.550   0.418  0.00  0.00    +0.141 C 
BRANCH  23  24
ATOM     24  O   UNK A  2       -8.438   2.247   0.143  0.00  0.00    -0.390 OA
ATOM     25  H   UNK A  2       -8.461   2.105  -0.806  0.00  0.00    +0.210 HD
ENDBRANCH  23  24
ENDBRANCH  16  23
ENDBRANCH  12  16
ENDBRANCH  11  14
BRANCH  11  26
ATOM     26  C   UNK A  2       -3.907   5.863   2.073  0.00  0.00    +0.067 C 
BRANCH  26  27
ATOM     27  C   UNK A  2       -5.062   6.393   2.908  0.00  0.00    -0.045 A 
ATOM     28  C   UNK A  2       -5.613   5.599   3.936  0.00  0.00    +0.007 A 
ATOM     29  C   UNK A  2       -6.691   6.081   4.702  0.00  0.00    +0.045 A 
ATOM     30  C   UNK A  2       -7.219   7.362   4.449  0.00  0.00    +0.117 A 
ATOM     31  C   UNK A  2       -6.668   8.161   3.428  0.00  0.00    +0.045 A 
ATOM     32  C   UNK A  2       -5.593   7.676   2.657  0.00  0.00    +0.007 A 
BRANCH  30  33
ATOM     33  O   UNK A  2       -8.264   7.830   5.191  0.00  0.00    -0.507 OA
ATOM     34  H   UNK A  2       -8.563   7.204   5.854  0.00  0.00    +0.292 HD
ENDBRANCH  30  33
ENDBRANCH  26  27
ENDBRANCH  11  26
ENDBRANCH   7  11
ENDBRANCH   6   9
BRANCH   6  35
ATOM     35  C   UNK A  2       -1.761   3.082  -2.466  0.00  0.00    +0.127 C 
BRANCH  35  36
ATOM     36  C   UNK A  2       -0.483   3.062  -3.316  0.00  0.00    +0.213 C 
ATOM     37  O   UNK A  2        0.574   3.520  -2.886  0.00  0.00    -0.276 OA
ATOM     38  N   UNK A  2       -0.583   2.539  -4.540  0.00  0.00    -0.329 N 
ATOM     39  H   UNK A  2        0.226   2.503  -5.144  0.00  0.00    +0.145 HD
ATOM     40  H   UNK A  2       -1.464   2.172  -4.871  0.00  0.00    +0.145 HD
ENDBRANCH  35  36
ENDBRANCH   6  35
ENDBRANCH   2   6
ENDBRANCH   1   4
BRANCH   1  41
ATOM     41  N   UNK A  2        1.934   0.174   0.384  0.00  0.00    -0.300 N 
ATOM     42  H   UNK A  2        2.462   0.227   1.243  0.00  0.00    +0.150 HD
ATOM     43  C   UNK A  2        2.563   0.339  -0.791  0.00  0.00    +0.237 C 
ATOM     44  O   UNK A  2        2.012   0.288  -1.892  0.00  0.00    -0.274 OA
BRANCH  43  45
ATOM     45  C   UNK A  2        4.070   0.644  -0.709  0.00  0.00    +0.187 C 
BRANCH  45  46
ATOM     46  N   UNK A  2        4.836  -0.253  -1.576  0.00  0.00    -0.300 N 
ATOM     47  H   UNK A  2        5.205   0.159  -2.421  0.00  0.00    +0.150 HD
ATOM     48  C   UNK A  2        5.030  -1.561  -1.337  0.00  0.00    +0.237 C 
ATOM     49  O   UNK A  2        4.612  -2.152  -0.339  0.00  0.00    -0.274 OA
BRANCH  48  50
ATOM     50  C   UNK A  2        5.820  -2.324  -2.418  0.00  0.00    +0.187 C 
BRANCH  50  51
ATOM     51  N   UNK A  2        6.455  -3.502  -1.828  0.00  0.00    -0.300 N 
ATOM     52  H   UNK A  2        5.834  -4.126  -1.333  0.00  0.00    +0.150 HD
ATOM     53  C   UNK A  2        7.765  -3.786  -1.887  0.00  0.00    +0.236 C 
ATOM     54  O   UNK A  2        8.608  -3.090  -2.453  0.00  0.00    -0.274 OA
BRANCH  53  55
ATOM     55  C   UNK A  2        8.200  -5.072  -1.161  0.00  0.00    +0.184 C 
BRANCH  55  56
ATOM     56  N   UNK A  2        9.288  -5.766  -1.856  0.00  0.00    -0.303 N 
ATOM     57  H   UNK A  2       10.183  -5.748  -1.390  0.00  0.00    +0.149 HD
ATOM     58  C   ALA A  1        9.178  -6.370  -3.053  0.00  0.00    +0.199 C 
ATOM     59  O   ALA A  1        8.119  -6.444  -3.685  0.00  0.00    -0.278 OA
BRANCH  58  60
ATOM     60  CA  ALA A  1       10.483  -7.003  -3.593  0.00  0.00    +0.010 C 
ATOM     61  CB  ALA A  1       10.499  -8.535  -3.416  0.00  0.00    -0.005 C 
BRANCH  60  62
ATOM     62  N   ALA A  1       10.589  -6.621  -5.044  0.00  0.00    +0.385 N 
ATOM     63  H1  ALA A  1       11.400  -7.070  -5.445  0.00  0.00    -0.089 HD
ATOM     64  H2  ALA A  1        9.755  -6.930  -5.525  0.00  0.00    -0.089 HD
ATOM     65  H3  ALA A  1       10.681  -5.618  -5.117  0.00  0.00    -0.089 HD
ENDBRANCH  60  62
ENDBRANCH  58  60
ENDBRANCH  55  56
BRANCH  55  66
ATOM     66  C   UNK A  2        8.645  -4.753   0.280  0.00  0.00    +0.187 C 
BRANCH  66  67
ATOM     67  O   UNK A  2        8.533  -5.901   1.095  0.00  0.00    -0.393 OA
ATOM     68  H   UNK A  2        9.218  -6.526   0.846  0.00  0.00    +0.209 HD
ENDBRANCH  66  67
ENDBRANCH  55  66
ENDBRANCH  53  55
ENDBRANCH  50  51
BRANCH  50  69
ATOM     69  C   UNK A  2        4.837  -2.727  -3.555  0.00  0.00    +0.141 C 
ATOM     70  C   UNK A  2        5.495  -3.557  -4.669  0.00  0.00    +0.040 C 
BRANCH  69  71
ATOM     71  O   UNK A  2        3.690  -3.415  -3.085  0.00  0.00    -0.390 OA
ATOM     72  H   UNK A  2        3.199  -2.831  -2.502  0.00  0.00    +0.210 HD
ENDBRANCH  69  71
ENDBRANCH  50  69
ENDBRANCH  48  50
ENDBRANCH  45  46
BRANCH  45  73
ATOM     73  C   UNK A  2        4.290   2.128  -1.116  0.00  0.00    +0.141 C 
ATOM     74  C   UNK A  2        3.441   3.168  -0.356  0.00  0.00    +0.040 C 
BRANCH  73  75
ATOM     75  O   UNK A  2        5.650   2.455  -0.909  0.00  0.00    -0.390 OA
ATOM     76  H   UNK A  2        6.189   1.902  -1.479  0.00  0.00    +0.210 HD
ENDBRANCH  73  75
ENDBRANCH  45  73
ENDBRANCH  43  45
ENDBRANCH   1  41
BRANCH   1  77
ATOM     77  C   UNK A  2        0.120  -0.634   1.884  0.00  0.00    +0.141 C 
ATOM     78  C   UNK A  2       -1.390  -0.719   2.187  0.00  0.00    +0.040 C 
BRANCH  77  79
ATOM     79  O   UNK A  2        0.630  -1.953   1.892  0.00  0.00    -0.390 OA
ATOM     80  H   UNK A  2        1.587  -1.913   1.825  0.00  0.00    +0.210 HD
ENDBRANCH  77  79
ENDBRANCH   1  77
TORSDOF 31
