REMARK  Name = DB16301
REMARK                            x       y       z     vdW  Elec       q    Type
REMARK                         _______ _______ _______ _____ _____    ______ ____
ROOT
ATOM      1  CA  SER A  8        3.746  -0.394   5.796  0.00  0.00    +0.184 C 
ENDROOT
BRANCH   1   3
ATOM      2  C   GLY A  7        2.657  -0.762   3.584  0.00  0.00    +0.231 C 
ATOM      3  N   SER A  8        3.216  -1.224   4.713  0.00  0.00    -0.301 N 
ATOM      4  H   SER A  8        3.316  -2.221   4.843  0.00  0.00    +0.150 HD
ATOM      5  O   GLY A  7        2.523   0.439   3.341  0.00  0.00    -0.274 OA
BRANCH   2   6
ATOM      6  CA  GLY A  7        2.211  -1.836   2.580  0.00  0.00    +0.200 C 
BRANCH   6   8
ATOM      7  C   PRO A  6        1.073  -0.713   0.676  0.00  0.00    +0.234 C 
ATOM      8  N   GLY A  7        1.037  -1.381   1.840  0.00  0.00    -0.305 N 
ATOM      9  H   GLY A  7        0.141  -1.551   2.274  0.00  0.00    +0.149 HD
ATOM     10  O   PRO A  6        2.103  -0.434   0.063  0.00  0.00    -0.274 OA
BRANCH   7  13
ATOM     11  C   LYS A  5       -0.586   1.883   1.354  0.00  0.00    +0.237 C 
ATOM     12  N   PRO A  6       -0.469   1.205   0.185  0.00  0.00    -0.288 N 
ATOM     13  CA  PRO A  6       -0.296  -0.259   0.132  0.00  0.00    +0.162 C 
ATOM     14  CB  PRO A  6       -0.495  -0.596  -1.356  0.00  0.00    +0.033 C 
ATOM     15  CG  PRO A  6       -0.074   0.661  -2.099  0.00  0.00    +0.021 C 
ATOM     16  CD  PRO A  6       -0.510   1.781  -1.163  0.00  0.00    +0.109 C 
ATOM     17  O   LYS A  5       -0.529   1.346   2.462  0.00  0.00    -0.274 OA
BRANCH  11  18
ATOM     18  CA  LYS A  5       -0.846   3.405   1.303  0.00  0.00    +0.159 C 
BRANCH  18  20
ATOM     19  C   ILE A  4       -3.318   3.630   1.425  0.00  0.00    +0.234 C 
ATOM     20  N   LYS A  5       -2.103   3.690   1.993  0.00  0.00    -0.302 N 
ATOM     21  H   LYS A  5       -2.030   3.870   2.983  0.00  0.00    +0.150 HD
ATOM     22  O   ILE A  4       -3.515   3.417   0.228  0.00  0.00    -0.274 OA
BRANCH  19  23
ATOM     23  CA  ILE A  4       -4.511   3.837   2.381  0.00  0.00    +0.162 C 
BRANCH  23  24
ATOM     24  N   ILE A  4       -5.576   4.630   1.770  0.00  0.00    -0.302 N 
ATOM     25  H   ILE A  4       -6.414   4.123   1.520  0.00  0.00    +0.150 HD
ATOM     26  C   ARG A  3       -5.522   5.953   1.548  0.00  0.00    +0.234 C 
ATOM     27  O   ARG A  3       -4.559   6.667   1.833  0.00  0.00    -0.274 OA
BRANCH  26  28
ATOM     28  CA  ARG A  3       -6.796   6.578   0.952  0.00  0.00    +0.159 C 
BRANCH  28  29
ATOM     29  N   ARG A  3       -7.747   6.846   2.029  0.00  0.00    -0.302 N 
ATOM     30  H   ARG A  3       -7.677   7.756   2.462  0.00  0.00    +0.150 HD
ATOM     31  C   VAL A  2       -8.639   5.961   2.503  0.00  0.00    +0.234 C 
ATOM     32  O   VAL A  2       -8.807   4.828   2.050  0.00  0.00    -0.274 OA
BRANCH  31  33
ATOM     33  CA  VAL A  2       -9.467   6.426   3.718  0.00  0.00    +0.161 C 
BRANCH  33  34
ATOM     34  N   VAL A  2      -10.897   6.213   3.489  0.00  0.00    -0.302 N 
ATOM     35  H   VAL A  2      -11.316   5.459   4.012  0.00  0.00    +0.150 HD
ATOM     36  C   MET A  1      -11.647   6.896   2.607  0.00  0.00    +0.230 C 
ATOM     37  O   MET A  1      -11.228   7.832   1.921  0.00  0.00    -0.274 OA
BRANCH  36  38
ATOM     38  CA  MET A  1      -13.112   6.430   2.462  0.00  0.00    +0.138 C 
BRANCH  38  39
ATOM     39  N   MET A  1      -13.963   7.541   2.918  0.00  0.00    -0.320 NA
ATOM     40  H1  MET A  1      -14.903   7.221   3.101  0.00  0.00    +0.119 HD
ATOM     41  H2  MET A  1      -14.039   8.247   2.200  0.00  0.00    +0.119 HD
ENDBRANCH  38  39
BRANCH  38  42
ATOM     42  CB  MET A  1      -13.470   5.978   1.022  0.00  0.00    +0.038 C 
BRANCH  42  43
ATOM     43  CG  MET A  1      -12.559   4.894   0.405  0.00  0.00    +0.071 C 
BRANCH  43  44
ATOM     44  SD  MET A  1      -12.336   3.373   1.374  0.00  0.00    -0.164 S 
ATOM     45  CE  MET A  1      -14.025   2.716   1.349  0.00  0.00    +0.084 C 
ENDBRANCH  43  44
ENDBRANCH  42  43
ENDBRANCH  38  42
ENDBRANCH  36  38
ENDBRANCH  33  34
BRANCH  33  46
ATOM     46  CB  VAL A  2       -8.989   5.655   4.987  0.00  0.00    +0.012 C 
ATOM     47  CG2 VAL A  2       -7.457   5.608   5.190  0.00  0.00    +0.009 C 
ATOM     48  CG1 VAL A  2       -9.653   6.223   6.255  0.00  0.00    +0.009 C 
ENDBRANCH  33  46
ENDBRANCH  31  33
ENDBRANCH  28  29
BRANCH  28  49
ATOM     49  CB  ARG A  3       -6.549   7.890   0.174  0.00  0.00    +0.033 C 
BRANCH  49  50
ATOM     50  CG  ARG A  3       -5.653   7.732  -1.074  0.00  0.00    +0.017 C 
BRANCH  50  51
ATOM     51  CD  ARG A  3       -5.459   9.034  -1.874  0.00  0.00    +0.084 C 
BRANCH  51  52
ATOM     52  NE  ARG A  3       -4.612  10.013  -1.169  0.00  0.00    -0.283 NA
ATOM     53  HE  ARG A  3       -4.239   9.703  -0.282  0.00  0.00    +0.125 HD
BRANCH  52  54
ATOM     54  CZ  ARG A  3       -4.293  11.257  -1.579  0.00  0.00    +0.167 C 
BRANCH  54  55
ATOM     55  NH2 ARG A  3       -3.503  12.009  -0.802  0.00  0.00    -0.297 NA
ATOM     56 HH21 ARG A  3       -3.152  11.644   0.072  0.00  0.00    +0.121 HD
ATOM     57 HH22 ARG A  3       -3.252  12.945  -1.087  0.00  0.00    +0.121 HD
ENDBRANCH  54  55
BRANCH  54  58
ATOM     58  NH1 ARG A  3       -4.739  11.769  -2.738  0.00  0.00    -0.297 NA
ATOM     59 HH11 ARG A  3       -5.337  11.217  -3.337  0.00  0.00    +0.121 HD
ATOM     60 HH12 ARG A  3       -4.482  12.705  -3.016  0.00  0.00    +0.121 HD
ENDBRANCH  54  58
ENDBRANCH  52  54
ENDBRANCH  51  52
ENDBRANCH  50  51
ENDBRANCH  49  50
ENDBRANCH  28  49
ENDBRANCH  26  28
ENDBRANCH  23  24
BRANCH  23  61
ATOM     61  CB  ILE A  4       -5.058   2.457   2.858  0.00  0.00    +0.015 C 
ATOM     62  CG2 ILE A  4       -5.615   1.568   1.723  0.00  0.00    +0.010 C 
BRANCH  61  64
ATOM     63  CD1 ILE A  4       -4.660   0.545   4.552  0.00  0.00    +0.004 C 
ATOM     64  CG1 ILE A  4       -4.036   1.672   3.716  0.00  0.00    +0.002 C 
ENDBRANCH  61  64
ENDBRANCH  23  61
ENDBRANCH  19  23
ENDBRANCH  18  20
BRANCH  18  65
ATOM     65  CB  LYS A  5        0.284   4.171   2.022  0.00  0.00    +0.032 C 
BRANCH  65  66
ATOM     66  CG  LYS A  5        0.186   5.699   1.846  0.00  0.00    +0.000 C 
BRANCH  66  67
ATOM     67  CD  LYS A  5        1.382   6.475   2.423  0.00  0.00    -0.019 C 
BRANCH  67  68
ATOM     68  CE  LYS A  5        1.494   6.393   3.955  0.00  0.00    -0.086 C 
BRANCH  68  69
ATOM     69  NZ  LYS A  5        2.616   7.202   4.463  0.00  0.00    +0.378 N 
ATOM     70  HZ1 LYS A  5        3.482   6.864   4.066  0.00  0.00    -0.090 HD
ATOM     71  HZ2 LYS A  5        2.482   8.168   4.204  0.00  0.00    -0.090 HD
ATOM     72  HZ3 LYS A  5        2.657   7.127   5.470  0.00  0.00    -0.090 HD
ENDBRANCH  68  69
ENDBRANCH  67  68
ENDBRANCH  66  67
ENDBRANCH  65  66
ENDBRANCH  18  65
ENDBRANCH  11  18
ENDBRANCH   7  13
ENDBRANCH   6   8
ENDBRANCH   2   6
ENDBRANCH   1   3
BRANCH   1  73
ATOM     73  C   SER A  8        5.202   0.036   5.536  0.00  0.00    +0.236 C 
ATOM     74  N   ALA A  9        5.595   1.154   6.169  0.00  0.00    -0.303 N 
ATOM     75  H   ALA A  9        4.931   1.656   6.740  0.00  0.00    +0.149 HD
ATOM     76  O   SER A  8        5.934  -0.652   4.823  0.00  0.00    -0.274 OA
BRANCH  74  77
ATOM     77  CA  ALA A  9        6.963   1.672   6.184  0.00  0.00    +0.156 C 
ATOM     78  CB  ALA A  9        6.907   3.210   6.148  0.00  0.00    +0.038 C 
BRANCH  77  79
ATOM     79  C   ALA A  9        7.710   1.132   7.417  0.00  0.00    +0.234 C 
ATOM     80  N   ASN A 10        7.972  -0.188   7.410  0.00  0.00    -0.302 N 
ATOM     81  H   ASN A 10        7.685  -0.739   6.613  0.00  0.00    +0.150 HD
ATOM     82  O   ALA A  9        8.007   1.891   8.341  0.00  0.00    -0.274 OA
BRANCH  80  83
ATOM     83  CA  ASN A 10        8.637  -0.928   8.484  0.00  0.00    +0.168 C 
BRANCH  83  84
ATOM     84  C   ASN A 10       10.113  -0.507   8.630  0.00  0.00    +0.234 C 
ATOM     85  N   LYS A 11       10.508  -0.205   9.876  0.00  0.00    -0.302 N 
ATOM     86  H   LYS A 11        9.843  -0.279  10.633  0.00  0.00    +0.150 HD
ATOM     87  O   ASN A 10       10.838  -0.468   7.635  0.00  0.00    -0.274 OA
BRANCH  85  88
ATOM     88  CA  LYS A 11       11.852   0.222  10.265  0.00  0.00    +0.159 C 
BRANCH  88  89
ATOM     89  C   LYS A 11       12.209  -0.463  11.601  0.00  0.00    +0.237 C 
ATOM     90  N   PRO A 12       13.435  -1.030  11.727  0.00  0.00    -0.288 N 
ATOM     91  CA  PRO A 12       13.870  -1.713  12.961  0.00  0.00    +0.162 C 
ATOM     92  CB  PRO A 12       15.196  -2.380  12.558  0.00  0.00    +0.033 C 
ATOM     93  CG  PRO A 12       15.751  -1.506  11.445  0.00  0.00    +0.021 C 
ATOM     94  CD  PRO A 12       14.497  -1.036  10.716  0.00  0.00    +0.109 C 
ATOM     95  O   LYS A 11       11.362  -0.469  12.496  0.00  0.00    -0.274 OA
BRANCH  91  96
ATOM     96  C   PRO A 12       14.029  -0.741  14.146  0.00  0.00    +0.234 C 
ATOM     97  N   SER A 13       13.232  -0.975  15.201  0.00  0.00    -0.301 N 
ATOM     98  H   SER A 13       12.607  -1.767  15.183  0.00  0.00    +0.150 HD
ATOM     99  O   PRO A 12       14.828   0.194  14.068  0.00  0.00    -0.274 OA
BRANCH  97 100
ATOM    100  CA  SER A 13       13.188  -0.162  16.419  0.00  0.00    +0.184 C 
BRANCH 100 101
ATOM    101  C   SER A 13       14.448  -0.325  17.288  0.00  0.00    +0.236 C 
ATOM    102  N   ASP A 14       14.785   0.747  18.026  0.00  0.00    -0.302 N 
ATOM    103  H   ASP A 14       14.217   1.579  17.972  0.00  0.00    +0.150 HD
ATOM    104  O   SER A 13       15.061  -1.394  17.287  0.00  0.00    -0.274 OA
BRANCH 102 105
ATOM    105  CA  ASP A 14       15.892   0.805  18.982  0.00  0.00    +0.169 C 
BRANCH 105 106
ATOM    106  C   ASP A 14       15.411   0.222  20.327  0.00  0.00    +0.235 C 
ATOM    107  N   ASP A 15       15.514  -1.112  20.450  0.00  0.00    -0.300 N 
ATOM    108  H   ASP A 15       15.910  -1.640  19.686  0.00  0.00    +0.150 HD
ATOM    109  O   ASP A 14       14.920   0.963  21.180  0.00  0.00    -0.274 OA
BRANCH 107 110
ATOM    110  CA  ASP A 15       15.015  -1.921  21.579  0.00  0.00    +0.192 C 
BRANCH 110 111
ATOM    111  C   ASP A 15       16.022  -1.890  22.793  0.00  0.00    +0.326 C 
ATOM    112  OXT ASP A 15       15.477  -1.762  23.915  0.00  0.00    -0.249 OA
BRANCH 111 113
ATOM    113  O   ASP A 15       17.233  -2.079  22.523  0.00  0.00    -0.479 OA
ATOM    114  H   ASP A 15       17.873  -2.070  23.208  0.00  0.00    +0.295 HD
ENDBRANCH 111 113
ENDBRANCH 110 111
BRANCH 110 115
ATOM    115  CB  ASP A 15       14.729  -3.388  21.130  0.00  0.00    +0.154 C 
BRANCH 115 116
ATOM    116  CG  ASP A 15       13.597  -3.602  20.101  0.00  0.00    +0.307 C 
ATOM    117  OD2 ASP A 15       13.513  -4.746  19.602  0.00  0.00    -0.251 OA
BRANCH 116 118
ATOM    118  OD1 ASP A 15       12.776  -2.681  19.890  0.00  0.00    -0.481 OA
ATOM    119  HD1 ASP A 15       12.086  -2.801  19.267  0.00  0.00    +0.295 HD
ENDBRANCH 116 118
ENDBRANCH 115 116
ENDBRANCH 110 115
ENDBRANCH 107 110
ENDBRANCH 105 106
BRANCH 105 120
ATOM    120  CB  ASP A 14       16.426   2.260  19.096  0.00  0.00    +0.152 C 
BRANCH 120 121
ATOM    121  CG  ASP A 14       17.682   2.494  19.960  0.00  0.00    +0.307 C 
ATOM    122  OD2 ASP A 14       18.461   1.538  20.171  0.00  0.00    -0.251 OA
BRANCH 121 123
ATOM    123  OD1 ASP A 14       17.921   3.682  20.273  0.00  0.00    -0.481 OA
ATOM    124  HD1 ASP A 14       18.670   3.887  20.797  0.00  0.00    +0.295 HD
ENDBRANCH 121 123
ENDBRANCH 120 121
ENDBRANCH 105 120
ENDBRANCH 102 105
ENDBRANCH 100 101
BRANCH 100 125
ATOM    125  CB  SER A 13       11.925  -0.537  17.218  0.00  0.00    +0.187 C 
BRANCH 125 126
ATOM    126  OG  SER A 13       10.779   0.040  16.622  0.00  0.00    -0.393 OA
ATOM    127  H   SER A 13       10.614  -0.404  15.787  0.00  0.00    +0.209 HD
ENDBRANCH 125 126
ENDBRANCH 100 125
ENDBRANCH  97 100
ENDBRANCH  91  96
ENDBRANCH  88  89
BRANCH  88 128
ATOM    128  CB  LYS A 11       11.862   1.759  10.436  0.00  0.00    +0.032 C 
BRANCH 128 129
ATOM    129  CG  LYS A 11       11.667   2.536   9.123  0.00  0.00    +0.000 C 
BRANCH 129 130
ATOM    130  CD  LYS A 11       11.762   4.059   9.312  0.00  0.00    -0.019 C 
BRANCH 130 131
ATOM    131  CE  LYS A 11       11.434   4.868   8.043  0.00  0.00    -0.086 C 
BRANCH 131 132
ATOM    132  NZ  LYS A 11       12.429   4.673   6.971  0.00  0.00    +0.378 N 
ATOM    133  HZ1 LYS A 11       13.339   4.962   7.299  0.00  0.00    -0.090 HD
ATOM    134  HZ2 LYS A 11       12.459   3.696   6.714  0.00  0.00    -0.090 HD
ATOM    135  HZ3 LYS A 11       12.170   5.225   6.165  0.00  0.00    -0.090 HD
ENDBRANCH 131 132
ENDBRANCH 130 131
ENDBRANCH 129 130
ENDBRANCH 128 129
ENDBRANCH  88 128
ENDBRANCH  85  88
ENDBRANCH  83  84
BRANCH  83 136
ATOM    136  CB  ASN A 10        8.497  -2.443   8.200  0.00  0.00    +0.127 C 
BRANCH 136 137
ATOM    137  CG  ASN A 10        8.922  -3.358   9.358  0.00  0.00    +0.213 C 
ATOM    138  OD1 ASN A 10        8.839  -2.987  10.527  0.00  0.00    -0.276 OA
ATOM    139  ND2 ASN A 10        9.364  -4.575   9.029  0.00  0.00    -0.329 N 
ATOM    140 HD21 ASN A 10        9.652  -5.221   9.749  0.00  0.00    +0.145 HD
ATOM    141 HD22 ASN A 10        9.415  -4.857   8.061  0.00  0.00    +0.145 HD
ENDBRANCH 136 137
ENDBRANCH  83 136
ENDBRANCH  80  83
ENDBRANCH  77  79
ENDBRANCH  74  77
ENDBRANCH   1  73
BRANCH   1 142
ATOM    142  CB  SER A  8        3.592  -1.168   7.125  0.00  0.00    +0.187 C 
BRANCH 142 143
ATOM    143  OG  SER A  8        4.476  -2.269   7.229  0.00  0.00    -0.393 OA
ATOM    144  H   SER A  8        4.324  -2.704   8.071  0.00  0.00    +0.209 HD
ENDBRANCH 142 143
ENDBRANCH   1 142
TORSDOF 64
