REMARK  Name = DB16656
REMARK                            x       y       z     vdW  Elec       q    Type
REMARK                         _______ _______ _______ _____ _____    ______ ____
ROOT
ATOM      1  C   LIG    1       -0.238   0.086   0.222  0.00  0.00    -0.095 C 
ATOM      2  N   LIG    1        1.298   0.029   0.089  0.00  0.00    +0.383 N 
ATOM      3  H   LIG    1        1.559  -0.946   0.132  0.00  0.00    -0.081 HD
ATOM      4  C   LIG    1        1.780   0.563  -1.282  0.00  0.00    -0.043 C 
ATOM      5  C   LIG    1        1.260  -0.217  -2.484  0.00  0.00    -0.062 A 
ATOM      6  C   LIG    1        1.740  -1.505  -2.738  0.00  0.00    +0.025 A 
ATOM      7  C   LIG    1        1.297  -2.239  -3.852  0.00  0.00    +0.034 A 
ATOM      8  C   LIG    1        0.349  -1.656  -4.699  0.00  0.00    +0.023 A 
ATOM      9  C   LIG    1       -0.136  -0.371  -4.452  0.00  0.00    +0.002 A 
ATOM     10  N   LIG    1        1.739  -3.540  -4.174  0.00  0.00    -0.284 N 
ATOM     11  H   LIG    1        1.214  -3.970  -4.922  0.00  0.00    +0.155 HD
ATOM     12  C   LIG    1        2.760  -4.368  -3.675  0.00  0.00    +0.220 A 
ATOM     13  N   LIG    1        3.578  -3.904  -2.700  0.00  0.00    -0.214 NA
ATOM     14  C   LIG    1        4.559  -4.717  -2.220  0.00  0.00    +0.076 A 
ATOM     15  C   LIG    1        4.728  -6.007  -2.745  0.00  0.00    +0.048 A 
ATOM     16  C   LIG    1        3.848  -6.408  -3.756  0.00  0.00    +0.116 A 
ATOM     17  C   LIG    1        5.404  -4.138  -1.125  0.00  0.00    +0.004 A 
ATOM     18  C   LIG    1        6.152  -4.953  -0.262  0.00  0.00    +0.010 A 
ATOM     19  C   LIG    1        6.888  -4.403   0.788  0.00  0.00    +0.004 A 
ATOM     20  C   LIG    1        6.888  -3.025   1.001  0.00  0.00    +0.045 A 
ATOM     21  C   LIG    1        6.157  -2.185   0.150  0.00  0.00    +0.121 A 
ATOM     22  O   LIG    1        6.077  -0.814   0.270  0.00  0.00    -0.492 OA
ATOM     23  C   LIG    1        6.457  -0.195   1.493  0.00  0.00    +0.233 C 
ATOM     24  C   LIG    1        5.925   1.252   1.489  0.00  0.00    +0.068 C 
ATOM     25  C   LIG    1        4.414   1.440   1.385  0.00  0.00    -0.030 C 
ATOM     26  C   LIG    1        3.474   0.475   1.387  0.00  0.00    -0.050 C 
ATOM     27  C   LIG    1        5.446  -2.750  -0.905  0.00  0.00    +0.055 A 
ATOM     28  N   LIG    1        2.859  -5.603  -4.229  0.00  0.00    -0.223 NA
ATOM     29  C   LIG    1        0.321   0.349  -3.349  0.00  0.00    +0.002 A 
ATOM     30  C   LIG    1        1.980   0.727   1.290  0.00  0.00    -0.051 C 
ENDROOT
TORSDOF 0
