REMARK  Name = DB16864
REMARK                            x       y       z     vdW  Elec       q    Type
REMARK                         _______ _______ _______ _____ _____    ______ ____
ROOT
ATOM      1  C   LIG    1       -0.006   0.002   0.000  0.00  0.00    -0.029 A 
ATOM      2  C   LIG    1        1.516  -0.023   0.000  0.00  0.00    +0.045 C 
ATOM      3  C   LIG    1       -0.715  -1.205   0.000  0.00  0.00    +0.050 A 
ATOM      4  C   LIG    1       -2.110  -1.206   0.000  0.00  0.00    +0.117 A 
ATOM      5  C   LIG    1       -2.807   0.002   0.000  0.00  0.00    +0.047 A 
ATOM      6  C   LIG    1       -2.108   1.209   0.000  0.00  0.00    +0.024 A 
ATOM      7  C   LIG    1       -0.712   1.215   0.000  0.00  0.00    +0.044 A 
ATOM      8 CL   LIG    1        0.112   2.737   0.000  0.00  0.00    -0.083 Cl
ENDROOT
BRANCH   4   9
ATOM      9  O   LIG    1       -2.795  -2.392   0.000  0.00  0.00    -0.507 OA
ATOM     10  H   LIG    1       -3.747  -2.275   0.000  0.00  0.00    +0.292 HD
ENDBRANCH   4   9
TORSDOF 1
