REMARK  Name = DB16287
REMARK                            x       y       z     vdW  Elec       q    Type
REMARK                         _______ _______ _______ _____ _____    ______ ____
ROOT
ATOM      1  C   LIG    1       -0.010   0.031   0.156  0.00  0.00    +0.117 C 
ENDROOT
BRANCH   1   2
ATOM      2  C   LIG    1       -0.529   1.483   0.321  0.00  0.00    -0.014 A 
ATOM      3  C   LIG    1       -0.469   2.111   1.574  0.00  0.00    +0.006 A 
ATOM      4  C   LIG    1       -0.924   3.416   1.739  0.00  0.00    +0.000 A 
ATOM      5  C   LIG    1       -1.446   4.107   0.651  0.00  0.00    +0.000 A 
ATOM      6  C   LIG    1       -1.514   3.505  -0.601  0.00  0.00    +0.000 A 
ATOM      7  C   LIG    1       -1.058   2.200  -0.766  0.00  0.00    +0.006 A 
ENDBRANCH   1   2
BRANCH   1   8
ATOM      8  C   LIG    1       -0.629  -0.938   1.228  0.00  0.00    +0.027 C 
ATOM      9  C   LIG    1       -2.178  -0.948   1.274  0.00  0.00    +0.007 C 
ATOM     10  C   LIG    1       -2.589  -2.397   1.540  0.00  0.00    +0.000 C 
ATOM     11  C   LIG    1       -1.506  -3.216   0.847  0.00  0.00    +0.000 C 
ATOM     12  C   LIG    1       -0.218  -2.432   1.111  0.00  0.00    +0.007 C 
ENDBRANCH   1   8
BRANCH   1  13
ATOM     13  O   LIG    1       -0.339  -0.517  -1.117  0.00  0.00    -0.381 OA
ATOM     14  H   LIG    1       -0.070  -1.439  -1.130  0.00  0.00    +0.211 HD
ENDBRANCH   1  13
BRANCH   1  15
ATOM     15  C   LIG    1        1.544   0.041   0.181  0.00  0.00    +0.199 C 
BRANCH  15  16
ATOM     16  O   LIG    1        2.022   0.365   1.484  0.00  0.00    -0.375 OA
BRANCH  16  17
ATOM     17  C   LIG    1        3.437   0.407   1.653  0.00  0.00    +0.105 C 
ATOM     18  C   LIG    1        4.087   1.651   0.971  0.00  0.00    +0.013 C 
ATOM     19  C   LIG    1        3.482   2.918   1.630  0.00  0.00    -0.013 C 
ATOM     20  C   LIG    1        3.709   2.925   3.166  0.00  0.00    -0.078 C 
ATOM     21  N   LIG    1        4.526   1.668   3.565  0.00  0.00    +0.381 N 
ATOM     22  H   LIG    1        4.693   1.675   4.561  0.00  0.00    -0.082 HD
ATOM     23  C   LIG    1        5.880   1.667   2.811  0.00  0.00    -0.078 C 
ATOM     24  C   LIG    1        5.606   1.629   1.284  0.00  0.00    -0.013 C 
ATOM     25  C   LIG    1        3.739   0.389   3.181  0.00  0.00    -0.047 C 
ENDBRANCH  16  17
ENDBRANCH  15  16
ENDBRANCH   1  15
TORSDOF 6
