REMARK  Name = DB16778
REMARK                            x       y       z     vdW  Elec       q    Type
REMARK                         _______ _______ _______ _____ _____    ______ ____
ROOT
ATOM      1  N   UNK A  1        2.115   0.469   0.521  0.00  0.00    -0.303 N 
ATOM      2  H   UNK A  1        2.480  -0.390   0.905  0.00  0.00    +0.149 HD
ATOM      3  C   UNK A  1        2.367   1.628   1.160  0.00  0.00    +0.217 C 
ATOM      4  O   UNK A  1        1.964   2.716   0.743  0.00  0.00    -0.275 OA
ENDROOT
BRANCH   3   5
ATOM      5  C   UNK A  1        3.189   1.526   2.466  0.00  0.00    +0.075 C 
ATOM      6  C   UNK A  1        3.637   2.923   2.977  0.00  0.00    +0.013 C 
ATOM      7  C   UNK A  1        4.437   2.766   4.288  0.00  0.00    +0.006 C 
ATOM      8  C   UNK A  1        3.636   2.013   5.383  0.00  0.00    +0.006 C 
ATOM      9  C   UNK A  1        3.199   0.636   4.826  0.00  0.00    +0.006 C 
ATOM     10  C   UNK A  1        2.362   0.767   3.537  0.00  0.00    +0.013 C 
BRANCH   8  11
ATOM     11  C   UNK A  1        4.419   1.841   6.710  0.00  0.00    +0.107 C 
BRANCH  11  12
ATOM     12  N   UNK A  1        4.719   3.083   7.422  0.00  0.00    -0.314 N 
ATOM     13  H   UNK A  1        4.032   3.385   8.098  0.00  0.00    +0.149 HD
ATOM     14  C   UNK A  1        5.835   3.821   7.278  0.00  0.00    +0.227 C 
ATOM     15  O   UNK A  1        6.732   3.535   6.485  0.00  0.00    -0.274 OA
BRANCH  14  16
ATOM     16  C   UNK A  1        5.954   5.095   8.133  0.00  0.00    +0.180 C 
BRANCH  16  17
ATOM     17  N   UNK A  1        5.715   4.820   9.553  0.00  0.00    -0.292 NA
ATOM     18  C   UNK A  1        5.237   5.999  10.288  0.00  0.00    +0.100 C 
ATOM     19  C   UNK A  1        4.541   5.673  11.640  0.00  0.00    +0.100 C 
ATOM     20  N   UNK A  1        4.746   6.670  12.702  0.00  0.00    -0.290 NA
ATOM     21  C   UNK A  1        6.131   6.709  13.204  0.00  0.00    +0.100 C 
ATOM     22  C   UNK A  1        6.506   5.426  13.986  0.00  0.00    +0.100 C 
ATOM     23  N   UNK A  1        7.906   5.418  14.437  0.00  0.00    -0.290 NA
ATOM     24  C   UNK A  1        8.885   5.359  13.332  0.00  0.00    +0.100 C 
ATOM     25  C   UNK A  1        8.893   4.033  12.511  0.00  0.00    +0.100 C 
ATOM     26  N   UNK A  1        9.189   4.178  11.071  0.00  0.00    -0.290 NA
ATOM     27  C   UNK A  1        8.147   4.888  10.315  0.00  0.00    +0.100 C 
ATOM     28  C   UNK A  1        6.811   4.099  10.232  0.00  0.00    +0.100 C 
BRANCH  20  29
ATOM     29  C   UNK A  1        4.264   8.000  12.274  0.00  0.00    +0.205 C 
BRANCH  29  30
ATOM     30  C   UNK A  1        3.939   8.999  13.416  0.00  0.00    +0.319 C 
ATOM     31  O   UNK A  1        3.830  10.197  13.072  0.00  0.00    -0.250 OA
BRANCH  30  32
ATOM     32  O   UNK A  1        3.758   8.589  14.588  0.00  0.00    -0.480 OA
ATOM     33  H   UNK A  1        3.855   7.678  14.786  0.00  0.00    +0.295 HD
ENDBRANCH  30  32
ENDBRANCH  29  30
ENDBRANCH  20  29
BRANCH  23  34
ATOM     34  C   UNK A  1        8.111   4.360  15.451  0.00  0.00    +0.205 C 
BRANCH  34  35
ATOM     35  C   UNK A  1        9.388   4.504  16.323  0.00  0.00    +0.319 C 
ATOM     36  O   UNK A  1        9.776   3.461  16.895  0.00  0.00    -0.250 OA
BRANCH  35  37
ATOM     37  O   UNK A  1        9.935   5.624  16.468  0.00  0.00    -0.480 OA
ATOM     38  H   UNK A  1        9.599   6.371  16.014  0.00  0.00    +0.295 HD
ENDBRANCH  35  37
ENDBRANCH  34  35
ENDBRANCH  23  34
BRANCH  26  39
ATOM     39  C   UNK A  1       10.515   4.780  10.812  0.00  0.00    +0.205 C 
BRANCH  39  40
ATOM     40  C   UNK A  1       11.738   3.890  11.164  0.00  0.00    +0.319 C 
ATOM     41  O   UNK A  1       12.824   4.494  11.318  0.00  0.00    -0.250 OA
BRANCH  40  42
ATOM     42  O   UNK A  1       11.618   2.643  11.222  0.00  0.00    -0.480 OA
ATOM     43  H   UNK A  1       10.778   2.247  11.099  0.00  0.00    +0.295 HD
ENDBRANCH  40  42
ENDBRANCH  39  40
ENDBRANCH  26  39
ENDBRANCH  16  17
ENDBRANCH  14  16
ENDBRANCH  11  12
ENDBRANCH   8  11
ENDBRANCH   3   5
BRANCH   1  44
ATOM     44  C   UNK A  1        1.239   0.317  -0.643  0.00  0.00    +0.163 C 
BRANCH  44  47
ATOM     45  N   UNK A  1       -0.983   1.349  -0.651  0.00  0.00    -0.314 N 
ATOM     46  H   UNK A  1       -0.574   1.999  -1.307  0.00  0.00    +0.149 HD
ATOM     47  C   UNK A  1       -0.227   0.349  -0.172  0.00  0.00    +0.234 C 
ATOM     48  O   UNK A  1       -0.626  -0.509   0.618  0.00  0.00    -0.274 OA
BRANCH  45  49
ATOM     49  C   UNK A  1       -2.342   1.646  -0.197  0.00  0.00    +0.104 C 
BRANCH  49  50
ATOM     50  C   UNK A  1       -2.419   2.139   1.267  0.00  0.00    +0.019 C 
BRANCH  50  51
ATOM     51  C   UNK A  1       -1.559   3.388   1.557  0.00  0.00    +0.004 C 
BRANCH  51  52
ATOM     52  C   UNK A  1       -1.356   3.661   3.062  0.00  0.00    +0.034 C 
BRANCH  52  53
ATOM     53  C   UNK A  1       -0.247   4.693   3.395  0.00  0.00    +0.183 C 
BRANCH  53  57
ATOM     54  N   UNK A  1        0.986   5.282   6.753  0.00  0.00    -0.286 N 
ATOM     55  H   UNK A  1        0.240   4.754   7.183  0.00  0.00    +0.151 HD
ATOM     56  C   UNK A  0        1.107   5.276   5.418  0.00  0.00    +0.301 C 
ATOM     57  N   UNK A  1        0.054   4.683   4.832  0.00  0.00    -0.286 N 
ATOM     58  H   UNK A  1       -0.626   4.215   5.412  0.00  0.00    +0.151 HD
ATOM     59  O   UNK A  0        2.046   5.788   4.805  0.00  0.00    -0.253 OA
BRANCH  54  60
ATOM     60  C   UNK A  1        1.849   6.021   7.675  0.00  0.00    +0.183 C 
BRANCH  60  61
ATOM     61  C   UNK A  1        1.848   5.284   9.031  0.00  0.00    +0.325 C 
ATOM     62  O   UNK A  1        2.422   4.229   9.206  0.00  0.00    -0.249 OA
BRANCH  61  63
ATOM     63  O   UNK A  1        1.119   5.951   9.974  0.00  0.00    -0.479 OA
ATOM     64  H   UNK A  1        1.121   5.504  10.824  0.00  0.00    +0.295 HD
ENDBRANCH  61  63
ENDBRANCH  60  61
BRANCH  60  65
ATOM     65  C   UNK A  1        1.440   7.526   7.688  0.00  0.00    +0.045 C 
BRANCH  65  66
ATOM     66  C   UNK A  1        2.412   8.486   8.412  0.00  0.00    +0.123 C 
BRANCH  66  67
ATOM     67  C   UNK A  1        3.701   8.746   7.629  0.00  0.00    +0.305 C 
ATOM     68  O   UNK A  1        4.819   8.419   8.020  0.00  0.00    -0.251 OA
BRANCH  67  69
ATOM     69  O   UNK A  1        3.474   9.404   6.456  0.00  0.00    -0.481 OA
ATOM     70  H   UNK A  1        4.283   9.572   5.968  0.00  0.00    +0.295 HD
ENDBRANCH  67  69
ENDBRANCH  66  67
ENDBRANCH  65  66
ENDBRANCH  60  65
ENDBRANCH  54  60
ENDBRANCH  53  57
BRANCH  53  71
ATOM     71  C   UNK A  1       -0.588   6.114   2.883  0.00  0.00    +0.325 C 
ATOM     72  O   UNK A  1       -1.070   6.993   3.571  0.00  0.00    -0.249 OA
BRANCH  71  73
ATOM     73  O   UNK A  1       -0.248   6.227   1.566  0.00  0.00    -0.479 OA
ATOM     74  H   UNK A  1       -0.425   7.103   1.217  0.00  0.00    +0.295 HD
ENDBRANCH  71  73
ENDBRANCH  53  71
ENDBRANCH  52  53
ENDBRANCH  51  52
ENDBRANCH  50  51
ENDBRANCH  49  50
ENDBRANCH  45  49
ENDBRANCH  44  47
BRANCH  44  75
ATOM     75  C   UNK A  1        1.571  -0.978  -1.429  0.00  0.00    +0.067 C 
BRANCH  75  76
ATOM     76  C   UNK A  1        0.821  -1.080  -2.755  0.00  0.00    -0.045 A 
ATOM     77  C   UNK A  1       -0.228  -1.991  -2.897  0.00  0.00    +0.012 A 
ATOM     78  C   UNK A  1       -0.939  -2.088  -4.119  0.00  0.00    -0.018 A 
ATOM     79  C   UNK A  1       -2.011  -3.000  -4.289  0.00  0.00    +0.008 A 
ATOM     80  C   UNK A  1       -2.689  -3.070  -5.503  0.00  0.00    +0.001 A 
ATOM     81  C   UNK A  1       -2.326  -2.247  -6.565  0.00  0.00    +0.001 A 
ATOM     82  C   UNK A  1       -1.278  -1.340  -6.431  0.00  0.00    +0.008 A 
ATOM     83  C   UNK A  1       -0.566  -1.244  -5.209  0.00  0.00    -0.018 A 
ATOM     84  C   UNK A  1        0.504  -0.332  -5.039  0.00  0.00    +0.009 A 
ATOM     85  C   UNK A  1        1.181  -0.260  -3.824  0.00  0.00    +0.004 A 
ENDBRANCH  75  76
ENDBRANCH  44  75
ENDBRANCH   1  44
TORSDOF 33
