REMARK  Name = DB16051
REMARK                            x       y       z     vdW  Elec       q    Type
REMARK                         _______ _______ _______ _____ _____    ______ ____
ROOT
ATOM      1  C   LIG    1        1.652  -0.387  -0.006  0.00  0.00    +0.113 C 
ATOM      2  C   LIG    1        2.337   0.767   0.183  0.00  0.00    +0.024 C 
ENDROOT
BRANCH   1   5
ATOM      3  N   LIG    1       -0.387  -1.598  -0.082  0.00  0.00    -0.304 N 
ATOM      4  H   LIG    1        0.187  -2.344  -0.446  0.00  0.00    +0.150 HD
ATOM      5  C   LIG    1        0.204  -0.411   0.173  0.00  0.00    +0.255 C 
ATOM      6  O   LIG    1       -0.443   0.575   0.535  0.00  0.00    -0.269 OA
BRANCH   3   8
ATOM      7  C   LIG    1       -2.122  -3.293  -0.534  0.00  0.00    +0.033 C 
ATOM      8  C   LIG    1       -1.823  -1.889   0.019  0.00  0.00    +0.100 C 
BRANCH   8   9
ATOM      9  C   LIG    1       -2.414  -1.722   1.425  0.00  0.00    -0.027 A 
ATOM     10  C   LIG    1       -3.654  -1.093   1.582  0.00  0.00    +0.005 A 
ATOM     11  C   LIG    1       -4.195  -0.920   2.853  0.00  0.00    +0.000 A 
ATOM     12  C   LIG    1       -3.496  -1.375   3.969  0.00  0.00    +0.000 A 
ATOM     13  C   LIG    1       -2.259  -2.000   3.825  0.00  0.00    +0.000 A 
ATOM     14  C   LIG    1       -1.718  -2.172   2.554  0.00  0.00    +0.005 A 
ENDBRANCH   8   9
ENDBRANCH   3   8
ENDBRANCH   1   5
BRANCH   1  15
ATOM     15  C   LIG    1        2.317  -1.601  -0.385  0.00  0.00    +0.104 C 
ATOM     16  N   LIG    1        2.838  -2.590  -0.686  0.00  0.00    -0.191 NA
ENDBRANCH   1  15
BRANCH   2  17
ATOM     17  C   LIG    1        3.776   0.904   0.029  0.00  0.00    +0.003 C 
ATOM     18  C   LIG    1        4.424   2.073   0.208  0.00  0.00    +0.028 C 
BRANCH  18  19
ATOM     19  C   LIG    1        5.878   2.301   0.073  0.00  0.00    +0.065 A 
ATOM     20  N   LIG    1        6.678   1.250  -0.264  0.00  0.00    -0.241 NA
ATOM     21  C   LIG    1        8.015   1.456  -0.390  0.00  0.00    +0.107 A 
ATOM     22 BR   LIG    1        9.126  -0.014  -0.863  0.00  0.00    -0.029 Br
ATOM     23  C   LIG    1        8.597   2.708  -0.184  0.00  0.00    +0.035 A 
ATOM     24  C   LIG    1        7.776   3.781   0.162  0.00  0.00    +0.005 A 
ATOM     25  C   LIG    1        6.401   3.580   0.293  0.00  0.00    +0.028 A 
ENDBRANCH  18  19
ENDBRANCH   2  17
TORSDOF 6
