REMARK  Name = DB16962
REMARK                            x       y       z     vdW  Elec       q    Type
REMARK                         _______ _______ _______ _____ _____    ______ ____
ROOT
ATOM      1  C   LIG    1       -0.476   2.054  -1.730  0.00  0.00    +0.403 C 
ATOM      2  N   LIG    1       -0.062   1.734  -0.421  0.00  0.00    -0.261 N 
ATOM      3  C   LIG    1        0.442   0.368  -0.140  0.00  0.00    +0.123 C 
ATOM      4  C   LIG    1       -0.564  -0.217   0.905  0.00  0.00    +0.099 C 
ATOM      5  C   LIG    1       -0.701   0.664   2.163  0.00  0.00    +0.024 C 
ATOM      6  C   LIG    1       -1.129   2.082   1.752  0.00  0.00    +0.021 C 
ATOM      7  C   LIG    1       -0.170   2.694   0.706  0.00  0.00    +0.111 C 
ATOM      8  O   LIG    1       -0.434   1.285  -2.695  0.00  0.00    -0.226 OA
ENDROOT
BRANCH   1  10
ATOM      9  C   LIG    1       -1.398   3.849  -3.065  0.00  0.00    +0.282 C 
ATOM     10  O   LIG    1       -0.937   3.328  -1.826  0.00  0.00    -0.454 OA
ENDBRANCH   1  10
BRANCH   4  11
ATOM     11  N   LIG    1       -0.113  -1.554   1.345  0.00  0.00    -0.190 NA
ATOM     12  H   LIG    1        0.789  -1.591   1.828  0.00  0.00    +0.148 HD
BRANCH  11  13
ATOM     13  S   LIG    1       -0.564  -2.984   0.426  0.00  0.00    +0.027 S 
ATOM     14  O   LIG    1        0.453  -4.008   0.691  0.00  0.00    -0.158 OA
ATOM     15  O   LIG    1       -0.868  -2.574  -0.949  0.00  0.00    -0.158 OA
ATOM     16  C   LIG    1       -2.168  -3.526   1.251  0.00  0.00    +0.214 C 
ENDBRANCH  11  13
ENDBRANCH   4  11
BRANCH   3  17
ATOM     17  C   LIG    1        1.942   0.330   0.244  0.00  0.00    +0.184 C 
BRANCH  17  18
ATOM     18  O   LIG    1        2.411  -1.014   0.207  0.00  0.00    -0.375 OA
BRANCH  18  19
ATOM     19  C   LIG    1        3.805  -1.209   0.418  0.00  0.00    +0.118 C 
ATOM     20  C   LIG    1        4.151  -2.664   0.038  0.00  0.00    +0.032 C 
ATOM     21  C   LIG    1        5.662  -2.924   0.208  0.00  0.00    +0.011 C 
ATOM     22  C   LIG    1        6.143  -2.661   1.663  0.00  0.00    +0.019 C 
ATOM     23  C   LIG    1        5.752  -1.213   2.077  0.00  0.00    +0.011 C 
ATOM     24  C   LIG    1        4.248  -0.902   1.870  0.00  0.00    +0.032 C 
BRANCH  22  25
ATOM     25  C   LIG    1        5.744  -3.791   2.636  0.00  0.00    -0.044 A 
ATOM     26  C   LIG    1        6.103  -5.111   2.325  0.00  0.00    +0.004 A 
ATOM     27  C   LIG    1        5.774  -6.158   3.182  0.00  0.00    +0.000 A 
ATOM     28  C   LIG    1        5.093  -5.892   4.365  0.00  0.00    +0.000 A 
ATOM     29  C   LIG    1        4.745  -4.587   4.701  0.00  0.00    +0.000 A 
ATOM     30  C   LIG    1        5.074  -3.541   3.843  0.00  0.00    +0.004 A 
ENDBRANCH  22  25
ENDBRANCH  18  19
ENDBRANCH  17  18
ENDBRANCH   3  17
TORSDOF 7
