REMARK  Name = DB16083
REMARK                            x       y       z     vdW  Elec       q    Type
REMARK                         _______ _______ _______ _____ _____    ______ ____
ROOT
ATOM      1  C   LIG    1        1.743   0.155  -0.025  0.00  0.00    +0.000 C 
ENDROOT
BRANCH   1   2
ATOM      2  C   LIG    1        0.216   0.105  -0.211  0.00  0.00    +0.000 C 
BRANCH   2   3
ATOM      3  C   LIG    1       -0.370   1.434  -0.731  0.00  0.00    +0.009 C 
BRANCH   3   4
ATOM      4  C   LIG    1       -1.909   1.437  -0.887  0.00  0.00    +0.096 C 
BRANCH   4   7
ATOM      5  N   LIG    1       -3.539  -0.244  -1.610  0.00  0.00    -0.313 N 
ATOM      6  H   LIG    1       -3.944  -0.101  -0.697  0.00  0.00    +0.149 HD
ATOM      7  C   LIG    1       -2.443   0.460  -1.946  0.00  0.00    +0.213 C 
ATOM      8  O   LIG    1       -1.880   0.358  -3.037  0.00  0.00    -0.276 OA
BRANCH   5   9
ATOM      9  C   LIG    1       -4.198  -1.238  -2.462  0.00  0.00    +0.132 C 
BRANCH   9  10
ATOM     10  C   LIG    1       -3.442  -2.576  -2.597  0.00  0.00    +0.174 C 
BRANCH  10  11
ATOM     11  O   LIG    1       -3.207  -3.163  -1.332  0.00  0.00    -0.393 OA
ATOM     12  H   LIG    1       -2.703  -3.970  -1.458  0.00  0.00    +0.209 HD
ENDBRANCH  10  11
ENDBRANCH   9  10
ENDBRANCH   5   9
ENDBRANCH   4   7
ENDBRANCH   3   4
ENDBRANCH   2   3
ENDBRANCH   1   2
BRANCH   1  13
ATOM     13  C   LIG    1        2.326  -1.167   0.503  0.00  0.00    +0.000 C 
BRANCH  13  14
ATOM     14  C   LIG    1        3.853  -1.119   0.688  0.00  0.00    +0.009 C 
BRANCH  14  15
ATOM     15  C   LIG    1        4.429  -2.447   1.230  0.00  0.00    +0.096 C 
BRANCH  15  16
ATOM     16  C   LIG    1        5.949  -2.444   1.452  0.00  0.00    +0.213 C 
ATOM     17  N   LIG    1        6.452  -3.542   2.043  0.00  0.00    -0.313 N 
ATOM     18  H   LIG    1        5.819  -4.286   2.297  0.00  0.00    +0.149 HD
ATOM     19  O   LIG    1        6.644  -1.488   1.099  0.00  0.00    -0.276 OA
BRANCH  17  20
ATOM     20  C   LIG    1        7.868  -3.767   2.344  0.00  0.00    +0.132 C 
BRANCH  20  21
ATOM     21  C   LIG    1        8.743  -4.113   1.121  0.00  0.00    +0.174 C 
BRANCH  21  22
ATOM     22  O   LIG    1        8.249  -5.253   0.445  0.00  0.00    -0.393 OA
ATOM     23  H   LIG    1        8.794  -5.409  -0.330  0.00  0.00    +0.209 HD
ENDBRANCH  21  22
ENDBRANCH  20  21
ENDBRANCH  17  20
ENDBRANCH  15  16
ENDBRANCH  14  15
ENDBRANCH  13  14
ENDBRANCH   1  13
TORSDOF 14
