REMARK  Name = DB16936
REMARK                            x       y       z     vdW  Elec       q    Type
REMARK                         _______ _______ _______ _____ _____    ______ ____
ROOT
ATOM      1  C   LIG    1        3.642   0.566   1.303  0.00  0.00    +0.100 C 
ATOM      2  C   LIG    1        4.459   1.188   2.464  0.00  0.00    +0.057 C 
ATOM      3  C   LIG    1        5.983   1.180   2.175  0.00  0.00    +0.111 C 
ATOM      4  N   LIG    1        6.204   1.916   0.913  0.00  0.00    -0.297 N 
ATOM      5  C   LIG    1        6.373   3.271   0.950  0.00  0.00    +0.247 C 
ATOM      6  O   LIG    1        6.302   3.920   1.998  0.00  0.00    -0.270 OA
ATOM      7  C   LIG    1        5.580   1.246  -0.249  0.00  0.00    +0.111 C 
ATOM      8  C   LIG    1        4.046   1.264  -0.026  0.00  0.00    +0.057 C 
ATOM      9  F   LIG    1        4.004  -0.718   1.213  0.00  0.00    -0.244 F 
ENDROOT
BRANCH   5  10
ATOM     10  C   LIG    1        6.690   4.012  -0.331  0.00  0.00    +0.038 A 
ATOM     11  C   LIG    1        7.563   3.476  -1.291  0.00  0.00    +0.036 A 
ATOM     12  C   LIG    1        7.868   4.185  -2.454  0.00  0.00    +0.077 A 
ATOM     13 CL   LIG    1        8.937   3.490  -3.620  0.00  0.00    -0.081 Cl
ATOM     14  C   LIG    1        7.314   5.449  -2.664  0.00  0.00    +0.142 A 
ATOM     15  F   LIG    1        7.602   6.149  -3.787  0.00  0.00    -0.204 F 
ATOM     16  C   LIG    1        6.462   6.001  -1.709  0.00  0.00    +0.040 A 
ATOM     17  C   LIG    1        6.157   5.291  -0.547  0.00  0.00    +0.016 A 
ENDBRANCH   5  10
BRANCH   1  18
ATOM     18  C   LIG    1        2.126   0.666   1.599  0.00  0.00    -0.041 C 
BRANCH  18  19
ATOM     19  N   LIG    1        1.295  -0.043   0.511  0.00  0.00    +0.386 N 
ATOM     20  H   LIG    1        1.578   0.301  -0.396  0.00  0.00    -0.085 HD
ATOM     21  H   LIG    1        1.503  -1.031   0.544  0.00  0.00    -0.085 HD
BRANCH  19  22
ATOM     22  C   LIG    1       -0.227   0.153   0.646  0.00  0.00    -0.005 C 
BRANCH  22  27
ATOM     23  C   LIG    1       -2.469   5.282  -0.703  0.00  0.00    +0.047 C 
ATOM     24  C   LIG    1       -1.861   3.941  -0.337  0.00  0.00    -0.014 A 
ATOM     25  C   LIG    1       -0.552   3.606  -0.700  0.00  0.00    +0.117 A 
ATOM     26  N   LIG    1        0.004   2.404  -0.395  0.00  0.00    -0.242 NA
ATOM     27  C   LIG    1       -0.785   1.531   0.293  0.00  0.00    +0.112 A 
ATOM     28  N   LIG    1       -2.069   1.756   0.677  0.00  0.00    -0.242 NA
ATOM     29  C   LIG    1       -2.591   2.969   0.354  0.00  0.00    +0.117 A 
ENDBRANCH  22  27
ENDBRANCH  19  22
ENDBRANCH  18  19
ENDBRANCH   1  18
TORSDOF 5
