REMARK  Name = DB16995
REMARK                            x       y       z     vdW  Elec       q    Type
REMARK                         _______ _______ _______ _____ _____    ______ ____
ROOT
ATOM      1  C   LIG    1        1.445  -0.831  -0.210  0.00  0.00    +0.322 C 
ENDROOT
BRANCH   1   2
ATOM      2  C   LIG    1       -0.075  -0.534  -0.197  0.00  0.00    +0.140 C 
BRANCH   2   3
ATOM      3  O   LIG    1       -0.699  -1.206   0.884  0.00  0.00    -0.390 OA
ATOM      4  H   LIG    1       -0.413  -2.123   0.881  0.00  0.00    +0.210 HD
ENDBRANCH   2   3
BRANCH   2   5
ATOM      5  C   LIG    1       -0.380   0.986  -0.167  0.00  0.00    -0.044 C 
BRANCH   5   6
ATOM      6  N   LIG    1       -1.895   1.294  -0.042  0.00  0.00    +0.381 N 
ATOM      7  H   LIG    1       -2.265   0.755   0.729  0.00  0.00    -0.082 HD
ATOM      8  C   LIG    1       -2.670   0.899  -1.324  0.00  0.00    -0.079 C 
ATOM      9  C   LIG    1       -4.167   1.199  -1.125  0.00  0.00    -0.019 C 
ATOM     10  C   LIG    1       -4.419   2.666  -0.739  0.00  0.00    -0.004 C 
ATOM     11  C   LIG    1       -3.594   3.074   0.493  0.00  0.00    -0.019 C 
ATOM     12  C   LIG    1       -2.093   2.791   0.300  0.00  0.00    -0.079 C 
ENDBRANCH   5   6
ENDBRANCH   2   5
ENDBRANCH   1   2
BRANCH   1  13
ATOM     13  O   LIG    1        2.180  -0.114   0.778  0.00  0.00    -0.294 OA
BRANCH  13  14
ATOM     14  N   LIG    1        2.055  -0.745   2.031  0.00  0.00    +0.154 NA
ATOM     15  C   LIG    1        2.609  -0.106   2.989  0.00  0.00    +0.364 C 
BRANCH  15  16
ATOM     16  C   LIG    1        3.475   1.102   2.844  0.00  0.00    +0.087 A 
ATOM     17  C   LIG    1        3.425   2.166   3.766  0.00  0.00    +0.126 A 
ATOM     18  N   LIG    1        4.193   3.283   3.683  0.00  0.00    -0.262 NA
ATOM     19  C   LIG    1        5.068   3.373   2.653  0.00  0.00    +0.111 A 
ATOM     20  C   LIG    1        5.207   2.374   1.692  0.00  0.00    +0.021 A 
ATOM     21  C   LIG    1        4.406   1.236   1.797  0.00  0.00    +0.019 A 
ENDBRANCH  15  16
BRANCH  15  22
ATOM     22  N   LIG    1        2.495  -0.473   4.313  0.00  0.00    -0.243 N 
ATOM     23  H   LIG    1        2.976   0.043   5.035  0.00  0.00    +0.289 HD
ATOM     24  H   LIG    1        1.952  -1.284   4.573  0.00  0.00    +0.289 HD
ENDBRANCH  15  22
ENDBRANCH  13  14
ENDBRANCH   1  13
TORSDOF 8
