REMARK  Name = DB16332
REMARK                            x       y       z     vdW  Elec       q    Type
REMARK                         _______ _______ _______ _____ _____    ______ ____
ROOT
ATOM      1  C   LIG    1       -1.061   1.525   3.083  0.00  0.00    +0.066 C 
ATOM      2  C   LIG    1        0.117   2.254   2.474  0.00  0.00    +0.050 A 
ATOM      3  N   LIG    1        0.948   2.809   3.335  0.00  0.00    -0.244 NA
ATOM      4  C   LIG    1        1.954   3.417   2.760  0.00  0.00    +0.112 A 
ATOM      5  S   LIG    1        1.904   3.328   1.025  0.00  0.00    -0.071 S 
ATOM      6  C   LIG    1        0.434   2.391   1.118  0.00  0.00    +0.023 A 
ENDROOT
BRANCH   4   7
ATOM      7  C   LIG    1        3.062   4.119   3.503  0.00  0.00    +0.042 A 
ATOM      8  C   LIG    1        2.903   4.557   4.831  0.00  0.00    +0.134 A 
ATOM      9  F   LIG    1        1.727   4.401   5.484  0.00  0.00    -0.205 F 
ATOM     10  C   LIG    1        3.957   5.171   5.509  0.00  0.00    +0.051 A 
ATOM     11  C   LIG    1        5.194   5.362   4.886  0.00  0.00    +0.058 A 
ATOM     12  C   LIG    1        5.355   4.940   3.564  0.00  0.00    +0.013 A 
ATOM     13  C   LIG    1        4.303   4.329   2.884  0.00  0.00    +0.014 A 
BRANCH  11  14
ATOM     14  C   LIG    1        6.360   6.026   5.618  0.00  0.00    +0.418 C 
ATOM     15  F   LIG    1        6.890   6.989   4.861  0.00  0.00    -0.166 F 
ATOM     16  F   LIG    1        7.299   5.113   5.865  0.00  0.00    -0.166 F 
ATOM     17  F   LIG    1        5.988   6.570   6.778  0.00  0.00    -0.166 F 
ENDBRANCH  11  14
ENDBRANCH   4   7
BRANCH   6  18
ATOM     18  C   LIG    1       -0.258   1.855  -0.119  0.00  0.00    +0.118 C 
BRANCH  18  19
ATOM     19  S   LIG    1       -0.071   0.057  -0.310  0.00  0.00    -0.120 S 
BRANCH  19  20
ATOM     20  C   LIG    1        1.658  -0.243  -0.134  0.00  0.00    +0.009 A 
ATOM     21  C   LIG    1        2.549   0.202  -1.111  0.00  0.00    +0.021 A 
ATOM     22  C   LIG    1        3.926   0.020  -0.943  0.00  0.00    -0.008 A 
ATOM     23  C   LIG    1        4.885   0.513  -2.013  0.00  0.00    +0.047 C 
ATOM     24  C   LIG    1        4.406  -0.612   0.215  0.00  0.00    +0.125 A 
ATOM     25  C   LIG    1        3.503  -1.083   1.174  0.00  0.00    +0.047 A 
ATOM     26  C   LIG    1        2.133  -0.894   1.004  0.00  0.00    +0.018 A 
BRANCH  24  27
ATOM     27  O   LIG    1        5.759  -0.792   0.406  0.00  0.00    -0.475 OA
BRANCH  27  28
ATOM     28  C   LIG    1        6.483   0.080   1.312  0.00  0.00    +0.200 C 
ATOM     29  C   LIG    1        6.888  -0.823   2.504  0.00  0.00    +0.067 C 
ATOM     30  C   LIG    1        5.687   1.322   1.830  0.00  0.00    +0.067 C 
BRANCH  28  31
ATOM     31  C   LIG    1        7.787   0.566   0.583  0.00  0.00    +0.348 C 
ATOM     32  O   LIG    1        8.575   1.315   1.211  0.00  0.00    -0.247 OA
BRANCH  31  33
ATOM     33  O   LIG    1        8.012   0.195  -0.594  0.00  0.00    -0.478 OA
ATOM     34  H   LIG    1        8.788   0.481  -1.035  0.00  0.00    +0.295 HD
ENDBRANCH  31  33
ENDBRANCH  28  31
ENDBRANCH  27  28
ENDBRANCH  24  27
ENDBRANCH  19  20
ENDBRANCH  18  19
ENDBRANCH   6  18
TORSDOF 9
