REMARK  Name = DB16034
REMARK                            x       y       z     vdW  Elec       q    Type
REMARK                         _______ _______ _______ _____ _____    ______ ____
ROOT
ATOM      1  C   LIG    1        1.565   0.072  -0.096  0.00  0.00    +0.186 C 
ENDROOT
BRANCH   1   2
ATOM      2  C   LIG    1        2.025   0.768   1.195  0.00  0.00    +0.003 A 
ATOM      3  C   LIG    1        2.084   0.067   2.415  0.00  0.00    +0.047 A 
ATOM      4 CL   LIG    1        1.661  -1.608   2.526  0.00  0.00    -0.083 Cl
ATOM      5  C   LIG    1        2.492   0.720   3.580  0.00  0.00    +0.020 A 
ATOM      6  C   LIG    1        2.839   2.069   3.549  0.00  0.00    +0.001 A 
ATOM      7  C   LIG    1        2.779   2.773   2.350  0.00  0.00    +0.000 A 
ATOM      8  C   LIG    1        2.373   2.128   1.183  0.00  0.00    +0.008 A 
ENDBRANCH   1   2
BRANCH   1  10
ATOM      9  C   LIG    1       -0.472  -0.856  -1.403  0.00  0.00    +0.055 C 
ATOM     10  C   LIG    1        0.018  -0.051  -0.178  0.00  0.00    +0.208 C 
BRANCH  10  11
ATOM     11  O   LIG    1       -0.573   1.254  -0.149  0.00  0.00    -0.445 OA
BRANCH  11  12
ATOM     12  C   LIG    1       -1.840   1.459   0.274  0.00  0.00    +0.398 C 
ATOM     13  O   LIG    1       -2.605   0.589   0.689  0.00  0.00    -0.227 OA
ATOM     14  N   LIG    1       -2.143   2.797   0.174  0.00  0.00    -0.295 N 
ATOM     15  H   LIG    1       -3.058   3.118   0.456  0.00  0.00    +0.148 HD
ATOM     16  H   LIG    1       -1.450   3.437  -0.185  0.00  0.00    +0.148 HD
ENDBRANCH  11  12
ENDBRANCH  10  11
ENDBRANCH   1  10
BRANCH   1  17
ATOM     17  O   LIG    1        2.076   0.665  -1.281  0.00  0.00    -0.383 OA
ATOM     18  H   LIG    1        3.031   0.564  -1.284  0.00  0.00    +0.210 HD
ENDBRANCH   1  17
TORSDOF 5
