REMARK  Name = DB16288
REMARK                            x       y       z     vdW  Elec       q    Type
REMARK                         _______ _______ _______ _____ _____    ______ ____
ROOT
ATOM      1  O   LIG    1        1.751  -1.919   0.531  0.00  0.00    -0.341 OA
ATOM      2  C   LIG    1        1.909  -0.595   1.044  0.00  0.00    +0.104 C 
ATOM      3  C   LIG    1        1.093  -0.446   2.338  0.00  0.00    +0.045 C 
ATOM      4  C   LIG    1        3.443  -0.393   1.240  0.00  0.00    +0.103 C 
ATOM      5  C   LIG    1        4.050  -0.566  -0.175  0.00  0.00    +0.177 C 
ATOM      6  C   LIG    1        3.275   0.229  -1.263  0.00  0.00    +0.068 C 
ATOM      7  C   LIG    1        2.349   1.346  -0.707  0.00  0.00    +0.048 C 
ATOM      8  C   LIG    1        1.999  -0.627  -1.376  0.00  0.00    +0.095 C 
ATOM      9  O   LIG    1        3.758  -1.878  -0.559  0.00  0.00    -0.319 OA
ATOM     10  C   LIG    1        1.417   0.200  -0.210  0.00  0.00    +0.116 C 
ATOM     11  C   LIG    1        2.369  -1.954  -0.729  0.00  0.00    +0.267 C 
ENDROOT
BRANCH   5  12
ATOM     12  O   LIG    1        5.388  -0.275  -0.187  0.00  0.00    -0.364 OA
ATOM     13  H   LIG    1        5.504   0.590   0.211  0.00  0.00    +0.213 HD
ENDBRANCH   5  12
BRANCH   8  14
ATOM     14  C   LIG    1        1.273  -0.691  -2.738  0.00  0.00    +0.247 C 
BRANCH  14  15
ATOM     15  O   LIG    1        0.028  -1.359  -2.584  0.00  0.00    -0.460 OA
BRANCH  15  16
ATOM     16  C   LIG    1       -0.856  -1.451  -3.605  0.00  0.00    +0.339 C 
ATOM     17  O   LIG    1       -0.636  -1.016  -4.739  0.00  0.00    -0.245 OA
BRANCH  16  18
ATOM     18  C   LIG    1       -2.124  -2.155  -3.219  0.00  0.00    +0.059 A 
ATOM     19  C   LIG    1       -3.079  -2.437  -4.206  0.00  0.00    +0.015 A 
ATOM     20  C   LIG    1       -4.270  -3.079  -3.874  0.00  0.00    +0.001 A 
ATOM     21  C   LIG    1       -4.515  -3.441  -2.553  0.00  0.00    +0.000 A 
ATOM     22  C   LIG    1       -3.580  -3.166  -1.560  0.00  0.00    +0.001 A 
ATOM     23  C   LIG    1       -2.389  -2.525  -1.889  0.00  0.00    +0.015 A 
ENDBRANCH  16  18
ENDBRANCH  15  16
ENDBRANCH  14  15
ENDBRANCH   8  14
BRANCH  10  24
ATOM     24  O   LIG    1       -0.010   0.306  -0.281  0.00  0.00    -0.338 OA
BRANCH  24  25
ATOM     25  C   LIG    1       -0.580   1.564  -0.069  0.00  0.00    +0.282 C 
ATOM     26  C   LIG    1       -2.105   1.396  -0.171  0.00  0.00    +0.201 C 
ATOM     27  C   LIG    1       -2.812   2.733   0.168  0.00  0.00    +0.179 C 
ATOM     28  C   LIG    1       -2.260   3.362   1.468  0.00  0.00    +0.177 C 
ATOM     29  C   LIG    1       -0.712   3.372   1.458  0.00  0.00    +0.178 C 
ATOM     30  O   LIG    1       -0.252   2.040   1.209  0.00  0.00    -0.341 OA
BRANCH  28  31
ATOM     31  O   LIG    1       -2.788   4.662   1.680  0.00  0.00    -0.386 OA
ATOM     32  H   LIG    1       -2.622   5.192   0.897  0.00  0.00    +0.210 HD
ENDBRANCH  28  31
BRANCH  27  33
ATOM     33  O   LIG    1       -4.218   2.566   0.233  0.00  0.00    -0.386 OA
ATOM     34  H   LIG    1       -4.480   1.926  -0.433  0.00  0.00    +0.210 HD
ENDBRANCH  27  33
BRANCH  26  35
ATOM     35  O   LIG    1       -2.486   0.926  -1.452  0.00  0.00    -0.384 OA
ATOM     36  H   LIG    1       -2.456   1.659  -2.071  0.00  0.00    +0.210 HD
ENDBRANCH  26  35
BRANCH  29  37
ATOM     37  C   LIG    1       -0.101   3.839   2.796  0.00  0.00    +0.190 C 
BRANCH  37  38
ATOM     38  O   LIG    1        1.306   3.934   2.697  0.00  0.00    -0.392 OA
ATOM     39  H   LIG    1        1.653   4.220   3.545  0.00  0.00    +0.210 HD
ENDBRANCH  37  38
ENDBRANCH  29  37
ENDBRANCH  24  25
ENDBRANCH  10  24
TORSDOF 12
