REMARK  Name = DB16954
REMARK                            x       y       z     vdW  Elec       q    Type
REMARK                         _______ _______ _______ _____ _____    ______ ____
ROOT
ATOM      1  N   LIG    1        2.364   0.502  -3.580  0.00  0.00    -0.306 NA
ATOM      2  C   LIG    1        1.229   1.178  -4.229  0.00  0.00    +0.066 C 
ATOM      3  C   LIG    1        0.127   0.191  -4.690  0.00  0.00    -0.063 C 
ATOM      4  N   LIG    1        0.748  -0.852  -5.651  0.00  0.00    +0.381 N 
ATOM      5  H   LIG    1        1.121  -0.366  -6.455  0.00  0.00    -0.082 HD
ATOM      6  C   LIG    1        1.929  -1.556  -4.942  0.00  0.00    -0.063 C 
ATOM      7  C   LIG    1        2.950  -0.482  -4.499  0.00  0.00    +0.066 C 
ENDROOT
BRANCH   1   8
ATOM      8  C   LIG    1        2.095  -0.024  -2.237  0.00  0.00    +0.082 C 
BRANCH   8   9
ATOM      9  C   LIG    1        2.062   1.090  -1.169  0.00  0.00    -0.003 C 
BRANCH   9  10
ATOM     10  C   LIG    1        1.547   0.618   0.205  0.00  0.00    -0.078 C 
BRANCH  10  11
ATOM     11  N   LIG    1        0.037   0.267   0.163  0.00  0.00    +0.380 N 
ATOM     12  H   LIG    1       -0.129  -0.228  -0.701  0.00  0.00    -0.082 HD
BRANCH  11  13
ATOM     13  C   LIG    1       -0.360  -0.695   1.315  0.00  0.00    -0.076 C 
BRANCH  13  15
ATOM     14  C   LIG    1       -0.541  -2.718  -0.279  0.00  0.00    +0.005 C 
ATOM     15  C   LIG    1        0.056  -2.161   1.030  0.00  0.00    -0.034 C 
ATOM     16  C   LIG    1       -0.316  -3.062   2.222  0.00  0.00    +0.005 C 
ENDBRANCH  13  15
ENDBRANCH  11  13
BRANCH  11  17
ATOM     17  C   LIG    1       -0.854   1.539   0.130  0.00  0.00    -0.076 C 
BRANCH  17  18
ATOM     18  C   LIG    1       -2.273   1.263  -0.432  0.00  0.00    -0.034 C 
ATOM     19  C   LIG    1       -3.109   2.555  -0.425  0.00  0.00    +0.005 C 
ATOM     20  C   LIG    1       -2.258   0.633  -1.839  0.00  0.00    +0.005 C 
ENDBRANCH  17  18
ENDBRANCH  11  17
ENDBRANCH  10  11
ENDBRANCH   9  10
ENDBRANCH   8   9
ENDBRANCH   1   8
BRANCH   4  21
ATOM     21  C   LIG    1       -0.283  -1.901  -6.132  0.00  0.00    -0.077 C 
BRANCH  21  22
ATOM     22  C   LIG    1       -1.317  -1.271  -7.082  0.00  0.00    +0.000 C 
BRANCH  22  23
ATOM     23  C   LIG    1       -2.210  -2.328  -7.748  0.00  0.00    +0.102 C 
BRANCH  23  24
ATOM     24  N   LIG    1       -3.172  -1.754  -8.677  0.00  0.00    -0.315 N 
ATOM     25  H   LIG    1       -3.502  -0.841  -8.399  0.00  0.00    +0.149 HD
BRANCH  24  26
ATOM     26  C   LIG    1       -3.746  -2.405  -9.737  0.00  0.00    +0.194 A 
ATOM     27  N   LIG    1       -4.686  -1.774 -10.515  0.00  0.00    -0.326 N 
ATOM     28  H   LIG    1       -5.000  -0.828 -10.356  0.00  0.00    +0.169 HD
ATOM     29  C   LIG    1       -5.072  -2.664 -11.492  0.00  0.00    +0.067 A 
ATOM     30  C   LIG    1       -5.977  -2.600 -12.554  0.00  0.00    +0.028 A 
ATOM     31  C   LIG    1       -6.089  -3.746 -13.347  0.00  0.00    +0.002 A 
ATOM     32  C   LIG    1       -5.339  -4.896 -13.096  0.00  0.00    +0.002 A 
ATOM     33  C   LIG    1       -4.435  -4.955 -12.033  0.00  0.00    +0.030 A 
ATOM     34  C   LIG    1       -4.299  -3.822 -11.218  0.00  0.00    +0.091 A 
ATOM     35  N   LIG    1       -3.490  -3.631 -10.127  0.00  0.00    -0.215 NA
ENDBRANCH  24  26
ENDBRANCH  23  24
ENDBRANCH  22  23
ENDBRANCH  21  22
ENDBRANCH   4  21
TORSDOF 13
