REMARK  Name = DB16240
REMARK                            x       y       z     vdW  Elec       q    Type
REMARK                         _______ _______ _______ _____ _____    ______ ____
ROOT
ATOM      1  N   LIG    1        1.489  -0.371  -0.727  0.00  0.00    -0.295 N 
ATOM      2  C   LIG    1        2.057   0.163  -1.841  0.00  0.00    +0.236 C 
ATOM      3  O   LIG    1        1.503   0.774  -2.757  0.00  0.00    -0.274 OA
ATOM      4  C   LIG    1        3.528  -0.270  -1.811  0.00  0.00    +0.161 C 
ATOM      5  C   LIG    1        3.793  -0.601  -0.355  0.00  0.00    +0.051 C 
ATOM      6  C   LIG    1        2.442  -1.075   0.137  0.00  0.00    +0.110 C 
ENDROOT
BRANCH   1   8
ATOM      7  C   LIG    1       -0.493  -0.487   0.908  0.00  0.00    +0.092 C 
ATOM      8  C   LIG    1        0.017  -0.397  -0.567  0.00  0.00    +0.096 C 
ATOM      9  C   LIG    1       -0.682  -1.491  -1.414  0.00  0.00    +0.023 C 
ATOM     10  C   LIG    1       -0.495  -2.907  -0.842  0.00  0.00    -0.014 C 
ATOM     11  C   LIG    1       -1.034  -3.009   0.606  0.00  0.00    -0.069 C 
ATOM     12  C   LIG    1       -0.440  -1.910   1.524  0.00  0.00    +0.008 C 
BRANCH   7  15
ATOM     13  C   LIG    1        0.312   2.822   2.712  0.00  0.00    +0.109 C 
ATOM     14  C   LIG    1       -0.304   1.895   1.670  0.00  0.00    +0.210 C 
ATOM     15  N   LIG    1       -0.048   0.581   1.810  0.00  0.00    -0.311 N 
ATOM     16  H   LIG    1        0.567   0.298   2.558  0.00  0.00    +0.149 HD
ATOM     17  O   LIG    1       -0.994   2.366   0.767  0.00  0.00    -0.276 OA
ENDBRANCH   7  15
BRANCH  11  18
ATOM     18  N   LIG    1       -0.655  -4.385   1.200  0.00  0.00    +0.384 N 
ATOM     19  H   LIG    1       -0.482  -4.239   2.184  0.00  0.00    -0.085 HD
ATOM     20  H   LIG    1        0.226  -4.668   0.794  0.00  0.00    -0.085 HD
BRANCH  18  21
ATOM     21  C   LIG    1       -1.660  -5.561   1.115  0.00  0.00    -0.077 C 
ATOM     22  C   LIG    1       -2.894  -5.217   1.981  0.00  0.00    -0.011 C 
ATOM     23  C   LIG    1       -2.057  -5.825  -0.353  0.00  0.00    -0.011 C 
ATOM     24  C   LIG    1       -0.928  -6.788   1.698  0.00  0.00    -0.011 C 
ENDBRANCH  18  21
ENDBRANCH  11  18
ENDBRANCH   1   8
BRANCH   4  25
ATOM     25  N   LIG    1        4.371   0.807  -2.331  0.00  0.00    -0.302 N 
ATOM     26  H   LIG    1        3.983   1.738  -2.386  0.00  0.00    +0.150 HD
BRANCH  25  27
ATOM     27  C   LIG    1        5.732   0.618  -2.633  0.00  0.00    +0.220 A 
ATOM     28  N   LIG    1        6.508   1.680  -3.040  0.00  0.00    -0.183 N 
ATOM     29  N   LIG    1        6.131   2.972  -3.197  0.00  0.00    -0.167 NA
ATOM     30  C   LIG    1        7.206   3.632  -3.608  0.00  0.00    +0.071 A 
ATOM     31  C   LIG    1        8.319   2.781  -3.711  0.00  0.00    +0.074 A 
ATOM     32  C   LIG    1        7.862   1.498  -3.345  0.00  0.00    +0.161 A 
ATOM     33  N   LIG    1        8.438   0.292  -3.249  0.00  0.00    -0.216 NA
ATOM     34  C   LIG    1        7.616  -0.713  -2.842  0.00  0.00    +0.227 A 
ATOM     35  N   LIG    1        6.298  -0.617  -2.529  0.00  0.00    -0.203 NA
BRANCH  30  36
ATOM     36  C   LIG    1        7.153   5.146  -3.877  0.00  0.00    +0.006 C 
ATOM     37  C   LIG    1        7.942   5.478  -5.167  0.00  0.00    +0.017 C 
ATOM     38  C   LIG    1        5.701   5.663  -4.062  0.00  0.00    +0.017 C 
ATOM     39  C   LIG    1        7.795   5.889  -2.684  0.00  0.00    +0.017 C 
ENDBRANCH  30  36
ENDBRANCH  25  27
ENDBRANCH   4  25
TORSDOF 7
