REMARK  Name = DB16495
REMARK                            x       y       z     vdW  Elec       q    Type
REMARK                         _______ _______ _______ _____ _____    ______ ____
ROOT
ATOM      1  C   LIG    1       -0.926   1.264   0.558  0.00  0.00    +0.000 C 
ENDROOT
BRANCH   1   2
ATOM      2  C   LIG    1       -2.423   1.020   0.294  0.00  0.00    +0.000 C 
BRANCH   2   3
ATOM      3  C   LIG    1       -3.279   2.286   0.471  0.00  0.00    +0.000 C 
BRANCH   3   4
ATOM      4  C   LIG    1       -4.769   2.050   0.168  0.00  0.00    +0.009 C 
BRANCH   4   5
ATOM      5  C   LIG    1       -5.619   3.330   0.327  0.00  0.00    +0.096 C 
BRANCH   5   6
ATOM      6  C   LIG    1       -7.099   3.158  -0.049  0.00  0.00    +0.213 C 
ATOM      7  O   LIG    1       -7.614   2.040  -0.106  0.00  0.00    -0.276 OA
ATOM      8  N   LIG    1       -7.776   4.294  -0.297  0.00  0.00    -0.313 N 
ATOM      9  H   LIG    1       -7.285   5.173  -0.227  0.00  0.00    +0.149 HD
BRANCH   8  10
ATOM     10  C   LIG    1       -9.187   4.371  -0.685  0.00  0.00    +0.132 C 
BRANCH  10  11
ATOM     11  C   LIG    1       -9.478   3.962  -2.144  0.00  0.00    +0.174 C 
BRANCH  11  12
ATOM     12  O   LIG    1       -8.725   4.740  -3.054  0.00  0.00    -0.393 OA
ATOM     13  H   LIG    1       -8.905   4.429  -3.944  0.00  0.00    +0.209 HD
ENDBRANCH  11  12
ENDBRANCH  10  11
ENDBRANCH   8  10
ENDBRANCH   5   6
ENDBRANCH   4   5
ENDBRANCH   3   4
ENDBRANCH   2   3
ENDBRANCH   1   2
BRANCH   1  14
ATOM     14  C   LIG    1       -0.068   0.004   0.351  0.00  0.00    +0.004 C 
BRANCH  14  15
ATOM     15  C   LIG    1        1.435   0.263   0.547  0.00  0.00    +0.027 C 
BRANCH  15  16
ATOM     16  C   LIG    1        2.287  -0.970   0.296  0.00  0.00    -0.031 C 
ATOM     17  C   LIG    1        2.911  -1.308  -0.850  0.00  0.00    -0.031 C 
BRANCH  17  18
ATOM     18  C   LIG    1        2.892  -0.551  -2.168  0.00  0.00    +0.027 C 
BRANCH  18  19
ATOM     19  C   LIG    1        2.168  -1.321  -3.288  0.00  0.00    +0.004 C 
BRANCH  19  20
ATOM     20  C   LIG    1        2.028  -0.539  -4.609  0.00  0.00    +0.000 C 
BRANCH  20  21
ATOM     21  C   LIG    1        3.365  -0.237  -5.313  0.00  0.00    +0.000 C 
BRANCH  21  22
ATOM     22  C   LIG    1        3.178   0.461  -6.675  0.00  0.00    -0.000 C 
BRANCH  22  23
ATOM     23  C   LIG    1        4.489   0.713  -7.446  0.00  0.00    -0.000 C 
BRANCH  23  24
ATOM     24  C   LIG    1        5.424   1.745  -6.787  0.00  0.00    -0.003 C 
ATOM     25  C   LIG    1        6.679   2.031  -7.623  0.00  0.00    +0.004 C 
ENDBRANCH  23  24
ENDBRANCH  22  23
ENDBRANCH  21  22
ENDBRANCH  20  21
ENDBRANCH  19  20
ENDBRANCH  18  19
ENDBRANCH  17  18
ENDBRANCH  15  16
ENDBRANCH  14  15
ENDBRANCH   1  14
TORSDOF 18
