REMARK  Name = DB16259
REMARK                            x       y       z     vdW  Elec       q    Type
REMARK                         _______ _______ _______ _____ _____    ______ ____
ROOT
ATOM      1  N   LIG    1       -0.587   4.891   0.651  0.00  0.00    -0.093 NA
ATOM      2  C   LIG    1       -0.801   3.704   0.250  0.00  0.00    +0.077 C 
ATOM      3  C   LIG    1        0.186   2.689  -0.300  0.00  0.00    +0.162 C 
ATOM      4  N   LIG    1       -0.459   1.399  -0.067  0.00  0.00    -0.286 N 
ATOM      5  C   LIG    1        0.177   0.226   0.210  0.00  0.00    +0.247 C 
ATOM      6  O   LIG    1       -0.438  -0.786   0.557  0.00  0.00    -0.270 OA
ATOM      7  C   LIG    1       -1.919   1.544  -0.100  0.00  0.00    +0.108 C 
ATOM      8  C   LIG    1       -2.157   3.035   0.203  0.00  0.00    +0.080 C 
ENDROOT
BRANCH   5   9
ATOM      9  C   LIG    1        1.686   0.153   0.117  0.00  0.00    +0.037 A 
ATOM     10  C   LIG    1        2.376   0.684  -0.980  0.00  0.00    +0.013 A 
ATOM     11  C   LIG    1        3.763   0.591  -1.051  0.00  0.00    +0.009 A 
ATOM     12  C   LIG    1        4.487  -0.041  -0.036  0.00  0.00    -0.018 A 
ATOM     13  C   LIG    1        3.794  -0.599   1.043  0.00  0.00    +0.009 A 
ATOM     14  C   LIG    1        2.407  -0.508   1.118  0.00  0.00    +0.013 A 
BRANCH  12  15
ATOM     15  C   LIG    1        5.971  -0.137  -0.122  0.00  0.00    -0.015 A 
ATOM     16  C   LIG    1        6.544  -0.742  -1.250  0.00  0.00    +0.009 A 
ATOM     17  C   LIG    1        7.926  -0.865  -1.378  0.00  0.00    +0.001 A 
ATOM     18  C   LIG    1        8.761  -0.378  -0.378  0.00  0.00    +0.000 A 
ATOM     19  C   LIG    1        8.213   0.233   0.747  0.00  0.00    +0.004 A 
ATOM     20  C   LIG    1        6.826   0.359   0.886  0.00  0.00    -0.043 A 
ATOM     21  C   LIG    1        6.289   1.082   2.116  0.00  0.00    +0.044 C 
ENDBRANCH  12  15
ENDBRANCH   5   9
BRANCH   1  23
ATOM     22  C   LIG    1        0.977   6.529   1.040  0.00  0.00    +0.313 C 
ATOM     23  O   LIG    1        0.778   5.214   0.549  0.00  0.00    -0.397 OA
ENDBRANCH   1  23
BRANCH   7  24
ATOM     24  C   LIG    1       -2.553   1.111  -1.449  0.00  0.00    +0.178 C 
BRANCH  24  25
ATOM     25  O   LIG    1       -2.375  -0.263  -1.726  0.00  0.00    -0.393 OA
ATOM     26  H   LIG    1       -2.797  -0.465  -2.564  0.00  0.00    +0.209 HD
ENDBRANCH  24  25
ENDBRANCH   7  24
TORSDOF 5
