REMARK  Name = DB16148
REMARK                            x       y       z     vdW  Elec       q    Type
REMARK                         _______ _______ _______ _____ _____    ______ ____
ROOT
ATOM      1  C   LIG    1       -0.911  -0.929   0.174  0.00  0.00    +0.070 C 
ATOM      2  C   LIG    1       -0.002   0.293   0.229  0.00  0.00    -0.022 C 
ATOM      3  C   LIG    1       -0.770   1.392   0.355  0.00  0.00    +0.111 C 
ATOM      4  C   LIG    1       -2.260   1.100   0.335  0.00  0.00    +0.106 C 
ATOM      5  C   LIG    1       -2.284  -0.332  -0.198  0.00  0.00    +0.133 C 
ENDROOT
BRANCH   1   7
ATOM      6  C   LIG    1       -0.521  -2.947   1.671  0.00  0.00    +0.000 C 
ATOM      7  C   LIG    1       -0.927  -1.673   1.502  0.00  0.00    -0.018 C 
BRANCH   6   8
ATOM      8  C   LIG    1       -0.505  -3.756   2.968  0.00  0.00    +0.137 C 
BRANCH   8   9
ATOM      9  O   LIG    1       -1.009  -2.984   4.044  0.00  0.00    -0.388 OA
ATOM     10  H   LIG    1       -1.963  -2.922   3.952  0.00  0.00    +0.210 HD
ENDBRANCH   8   9
BRANCH   8  11
ATOM     11  C   LIG    1       -1.303  -5.076   2.897  0.00  0.00    +0.035 C 
BRANCH  11  12
ATOM     12  C   LIG    1       -0.703  -6.128   1.942  0.00  0.00    +0.003 C 
BRANCH  12  13
ATOM     13  C   LIG    1       -1.483  -7.455   1.944  0.00  0.00    -0.000 C 
BRANCH  13  15
ATOM     14  C   LIG    1       -1.657  -9.829   1.000  0.00  0.00    +0.004 C 
ATOM     15  C   LIG    1       -0.882  -8.505   0.994  0.00  0.00    -0.003 C 
ENDBRANCH  13  15
ENDBRANCH  12  13
ENDBRANCH  11  12
ENDBRANCH   8  11
ENDBRANCH   6   8
ENDBRANCH   1   7
BRANCH   5  16
ATOM     16  O   LIG    1       -2.497  -0.357  -1.599  0.00  0.00    -0.390 OA
ATOM     17  H   LIG    1       -2.709  -1.256  -1.860  0.00  0.00    +0.210 HD
ENDBRANCH   5  16
BRANCH   2  18
ATOM     18  C   LIG    1        1.512   0.170   0.195  0.00  0.00    +0.035 C 
BRANCH  18  19
ATOM     19  C   LIG    1        2.065  -0.332  -1.153  0.00  0.00    +0.004 C 
BRANCH  19  20
ATOM     20  C   LIG    1        3.603  -0.341  -1.240  0.00  0.00    +0.000 C 
BRANCH  20  21
ATOM     21  C   LIG    1        4.288  -1.364  -0.312  0.00  0.00    +0.001 C 
BRANCH  21  22
ATOM     22  C   LIG    1        5.817  -1.386  -0.478  0.00  0.00    +0.011 C 
BRANCH  22  23
ATOM     23  C   LIG    1        6.499  -2.416   0.443  0.00  0.00    +0.120 C 
BRANCH  23  24
ATOM     24  C   LIG    1        8.022  -2.418   0.302  0.00  0.00    +0.307 C 
ATOM     25  O   LIG    1        8.744  -1.905   1.159  0.00  0.00    -0.251 OA
BRANCH  24  26
ATOM     26  O   LIG    1        8.434  -3.023  -0.831  0.00  0.00    -0.465 OA
BRANCH  26  27
ATOM     27  C   LIG    1        9.819  -3.109  -1.145  0.00  0.00    +0.232 C 
BRANCH  27  28
ATOM     28  C   LIG    1       10.016  -3.822  -2.493  0.00  0.00    +0.041 C 
BRANCH  28  29
ATOM     29  C   LIG    1        9.413  -3.060  -3.688  0.00  0.00    -0.000 C 
ATOM     30  C   LIG    1        9.620  -3.784  -5.025  0.00  0.00    +0.004 C 
ENDBRANCH  28  29
ENDBRANCH  27  28
ENDBRANCH  26  27
ENDBRANCH  24  26
ENDBRANCH  23  24
ENDBRANCH  22  23
ENDBRANCH  21  22
ENDBRANCH  20  21
ENDBRANCH  19  20
ENDBRANCH  18  19
ENDBRANCH   2  18
BRANCH   3  31
ATOM     31  O   LIG    1       -0.339   2.676   0.403  0.00  0.00    -0.430 OA
BRANCH  31  32
ATOM     32  C   LIG    1       -0.580   3.436   1.507  0.00  0.00    +0.312 C 
ATOM     33  O   LIG    1       -1.160   3.083   2.537  0.00  0.00    -0.250 OA
BRANCH  32  34
ATOM     34  C   LIG    1       -0.019   4.855   1.373  0.00  0.00    +0.121 C 
BRANCH  34  35
ATOM     35  C   LIG    1        1.434   4.926   0.853  0.00  0.00    +0.008 C 
ATOM     36  C   LIG    1        2.474   4.273   1.779  0.00  0.00    +0.004 C 
ENDBRANCH  34  35
ENDBRANCH  32  34
ENDBRANCH  31  32
ENDBRANCH   3  31
TORSDOF 23
