REMARK  Name = DB16266
REMARK                            x       y       z     vdW  Elec       q    Type
REMARK                         _______ _______ _______ _____ _____    ______ ____
ROOT
ATOM      1  C   LIG    1       -0.823  -1.382  -0.095  0.00  0.00    +0.162 A 
ATOM      2  C   LIG    1       -0.078  -0.199  -0.012  0.00  0.00    +0.166 A 
ATOM      3  C   LIG    1       -0.690   1.027   0.296  0.00  0.00    +0.005 A 
ATOM      4  C   LIG    1        0.111   2.322   0.402  0.00  0.00    +0.073 C 
ATOM      5  C   LIG    1       -0.701   3.581  -0.023  0.00  0.00    +0.189 C 
ATOM      6  N   LIG    1       -1.912   3.586   0.852  0.00  0.00    -0.283 N 
ATOM      7  C   LIG    1       -2.399   4.729   1.422  0.00  0.00    +0.228 C 
ATOM      8  O   LIG    1       -3.537   4.784   1.901  0.00  0.00    -0.275 OA
ATOM      9  C   LIG    1       -2.796   2.393   0.812  0.00  0.00    +0.144 C 
ATOM     10  C   LIG    1       -2.075   1.072   0.532  0.00  0.00    -0.023 A 
ATOM     11  C   LIG    1       -2.809  -0.114   0.463  0.00  0.00    +0.009 A 
ATOM     12  C   LIG    1       -2.200  -1.325   0.156  0.00  0.00    +0.050 A 
ENDROOT
BRANCH   1  14
ATOM     13  C   LIG    1       -0.862  -3.765  -0.528  0.00  0.00    +0.277 C 
ATOM     14  O   LIG    1       -0.143  -2.542  -0.421  0.00  0.00    -0.491 OA
ENDBRANCH   1  14
BRANCH   5  15
ATOM     15  C   LIG    1       -1.015   3.622  -1.561  0.00  0.00    +0.326 C 
ATOM     16  O   LIG    1       -2.123   4.058  -1.952  0.00  0.00    -0.249 OA
BRANCH  15  17
ATOM     17  O   LIG    1       -0.108   3.270  -2.350  0.00  0.00    -0.479 OA
ATOM     18  H   LIG    1       -0.261   3.282  -3.275  0.00  0.00    +0.295 HD
ENDBRANCH  15  17
ENDBRANCH   5  15
BRANCH   2  19
ATOM     19  O   LIG    1        1.276  -0.230  -0.250  0.00  0.00    -0.483 OA
BRANCH  19  20
ATOM     20  C   LIG    1        2.068  -0.607   0.873  0.00  0.00    +0.264 C 
BRANCH  20  21
ATOM     21  C   LIG    1        3.540  -0.287   0.639  0.00  0.00    -0.010 A 
ATOM     22  C   LIG    1        4.050  -0.109  -0.654  0.00  0.00    +0.007 A 
ATOM     23  C   LIG    1        5.399   0.180  -0.838  0.00  0.00    +0.000 A 
ATOM     24  C   LIG    1        6.240   0.286   0.267  0.00  0.00    +0.000 A 
ATOM     25  C   LIG    1        5.744   0.105   1.556  0.00  0.00    +0.000 A 
ATOM     26  C   LIG    1        4.394  -0.183   1.741  0.00  0.00    +0.007 A 
ENDBRANCH  20  21
ENDBRANCH  19  20
ENDBRANCH   2  19
BRANCH   7  27
ATOM     27  C   LIG    1       -1.459   5.958   1.621  0.00  0.00    +0.135 C 
BRANCH  27  28
ATOM     28  C   LIG    1       -1.358   6.839   0.360  0.00  0.00    -0.031 A 
ATOM     29  C   LIG    1       -0.097   7.292  -0.047  0.00  0.00    +0.005 A 
ATOM     30  C   LIG    1        0.035   8.077  -1.189  0.00  0.00    +0.000 A 
ATOM     31  C   LIG    1       -1.096   8.415  -1.928  0.00  0.00    +0.000 A 
ATOM     32  C   LIG    1       -2.357   7.976  -1.534  0.00  0.00    +0.000 A 
ATOM     33  C   LIG    1       -2.488   7.191  -0.393  0.00  0.00    +0.005 A 
ENDBRANCH  27  28
BRANCH  27  34
ATOM     34  C   LIG    1       -1.789   6.760   2.895  0.00  0.00    -0.031 A 
ATOM     35  C   LIG    1       -1.005   6.581   4.043  0.00  0.00    +0.005 A 
ATOM     36  C   LIG    1       -1.291   7.288   5.208  0.00  0.00    +0.000 A 
ATOM     37  C   LIG    1       -2.366   8.173   5.232  0.00  0.00    +0.000 A 
ATOM     38  C   LIG    1       -3.159   8.355   4.103  0.00  0.00    +0.000 A 
ATOM     39  C   LIG    1       -2.873   7.648   2.938  0.00  0.00    +0.005 A 
ENDBRANCH  27  34
ENDBRANCH   7  27
TORSDOF 9
