REMARK  Name = DB16087
REMARK                            x       y       z     vdW  Elec       q    Type
REMARK                         _______ _______ _______ _____ _____    ______ ____
ROOT
ATOM      1  C   LIG    1        1.254  -0.420  -0.386  0.00  0.00    +0.146 A 
ATOM      2  C   LIG    1        2.274   0.055  -1.242  0.00  0.00    +0.076 A 
ATOM      3  C   LIG    1        3.587   0.115  -0.748  0.00  0.00    +0.055 A 
ATOM      4  C   LIG    1        3.894  -0.350   0.532  0.00  0.00    +0.098 A 
ATOM      5  C   LIG    1        2.839  -0.829   1.326  0.00  0.00    +0.239 A 
ATOM      6  N   LIG    1        1.559  -0.874   0.862  0.00  0.00    -0.194 NA
ENDROOT
BRANCH   2   7
ATOM      7  N   LIG    1        1.982   0.453  -2.563  0.00  0.00    -0.279 N 
ATOM      8  H   LIG    1        1.074   0.872  -2.699  0.00  0.00    +0.155 HD
ATOM      9  C   LIG    1        2.711   0.201  -3.672  0.00  0.00    +0.241 C 
ATOM     10  O   LIG    1        3.770  -0.431  -3.680  0.00  0.00    -0.271 OA
BRANCH   9  11
ATOM     11  C   LIG    1        2.115   0.760  -4.864  0.00  0.00    +0.060 C 
ATOM     12  C   LIG    1        2.666   0.625  -6.084  0.00  0.00    +0.013 C 
ENDBRANCH   9  11
ENDBRANCH   2   7
BRANCH   1  13
ATOM     13  N   LIG    1       -0.110  -0.491  -0.787  0.00  0.00    -0.318 N 
ATOM     14  C   LIG    1       -0.753   0.775  -1.144  0.00  0.00    +0.130 C 
BRANCH  13  15
ATOM     15  C   LIG    1       -0.988  -1.493  -0.166  0.00  0.00    +0.088 C 
BRANCH  15  16
ATOM     16  C   LIG    1       -1.606  -1.067   1.187  0.00  0.00    -0.060 C 
BRANCH  16  18
ATOM     17  C   LIG    1       -1.617  -3.396   2.296  0.00  0.00    -0.097 C 
ATOM     18  N   LIG    1       -2.459  -2.202   1.799  0.00  0.00    +0.377 N 
ATOM     19  H   LIG    1       -3.072  -2.542   1.070  0.00  0.00    -0.083 HD
ATOM     20  C   LIG    1       -3.363  -1.673   2.930  0.00  0.00    -0.097 C 
ENDBRANCH  16  18
ENDBRANCH  15  16
ENDBRANCH  13  15
ENDBRANCH   1  13
BRANCH   4  21
ATOM     21  N   LIG    1        5.238  -0.268   0.945  0.00  0.00    -0.279 N 
ATOM     22  H   LIG    1        5.754   0.489   0.521  0.00  0.00    +0.155 HD
BRANCH  21  23
ATOM     23  C   LIG    1        6.007  -1.037   1.831  0.00  0.00    +0.220 A 
ATOM     24  N   LIG    1        7.186  -0.481   2.213  0.00  0.00    -0.214 NA
ATOM     25  C   LIG    1        7.992  -1.208   3.040  0.00  0.00    +0.078 A 
ATOM     26  C   LIG    1        7.615  -2.483   3.480  0.00  0.00    +0.048 A 
ATOM     27  C   LIG    1        6.392  -2.981   3.026  0.00  0.00    +0.116 A 
ATOM     28  N   LIG    1        5.583  -2.277   2.194  0.00  0.00    -0.223 NA
BRANCH  25  29
ATOM     29  C   LIG    1        9.281  -0.544   3.424  0.00  0.00    +0.026 A 
ATOM     30  C   LIG    1       10.498  -1.135   3.939  0.00  0.00    +0.009 A 
ATOM     31  C   LIG    1       10.925  -2.450   4.208  0.00  0.00    +0.010 A 
ATOM     32  C   LIG    1       12.203  -2.669   4.717  0.00  0.00    +0.001 A 
ATOM     33  C   LIG    1       13.070  -1.611   4.961  0.00  0.00    +0.002 A 
ATOM     34  C   LIG    1       12.707  -0.292   4.703  0.00  0.00    +0.026 A 
ATOM     35  C   LIG    1       11.422  -0.067   4.188  0.00  0.00    +0.049 A 
ATOM     36  N   LIG    1       10.796   1.110   3.824  0.00  0.00    -0.349 N 
ATOM     37  C   LIG    1       11.370   2.445   3.904  0.00  0.00    +0.149 C 
ATOM     38  C   LIG    1        9.538   0.816   3.363  0.00  0.00    +0.096 A 
ENDBRANCH  25  29
ENDBRANCH  21  23
ENDBRANCH   4  21
BRANCH   5  39
ATOM     39  O   LIG    1        3.065  -1.208   2.639  0.00  0.00    -0.466 OA
BRANCH  39  40
ATOM     40  C   LIG    1        1.997  -1.730   3.434  0.00  0.00    +0.344 C 
BRANCH  40  41
ATOM     41  C   LIG    1        2.535  -2.152   4.808  0.00  0.00    +0.424 C 
ATOM     42  F   LIG    1        3.086  -1.123   5.453  0.00  0.00    -0.167 F 
ATOM     43  F   LIG    1        3.456  -3.110   4.700  0.00  0.00    -0.167 F 
ATOM     44  F   LIG    1        1.551  -2.626   5.572  0.00  0.00    -0.167 F 
ENDBRANCH  40  41
ENDBRANCH  39  40
ENDBRANCH   5  39
TORSDOF 12
