REMARK  Name = DB16129
REMARK                            x       y       z     vdW  Elec       q    Type
REMARK                         _______ _______ _______ _____ _____    ______ ____
ROOT
ATOM      1  C   LIG    1        0.953  -0.352   0.760  0.00  0.00    +0.159 C 
ATOM      2  C   LIG    1        0.491  -1.353   1.843  0.00  0.00    +0.234 C 
ATOM      3  O   LIG    1        0.700  -1.015   3.007  0.00  0.00    -0.274 OA
ATOM      4  N   LIG    1       -0.122  -2.533   1.603  0.00  0.00    -0.311 N 
ATOM      5  H   LIG    1       -0.370  -3.026   2.449  0.00  0.00    +0.149 HD
ATOM      6  C   LIG    1       -0.465  -3.317   0.407  0.00  0.00    +0.070 C 
ATOM      7  C   LIG    1       -1.417  -2.637  -0.599  0.00  0.00    +0.028 C 
ATOM      8  C   LIG    1        0.688  -4.142  -0.233  0.00  0.00    +0.027 C 
ATOM      9  C   LIG    1        1.780  -4.595   0.768  0.00  0.00    +0.040 C 
ATOM     10  C   LIG    1        2.585  -5.845   0.399  0.00  0.00    -0.006 A 
ATOM     11  C   LIG    1        2.670  -6.869   1.353  0.00  0.00    +0.007 A 
ATOM     12  C   LIG    1        3.449  -7.997   1.124  0.00  0.00    +0.000 A 
ATOM     13  C   LIG    1        4.165  -8.111  -0.061  0.00  0.00    +0.004 A 
ATOM     14  C   LIG    1        4.088  -7.106  -1.021  0.00  0.00    +0.046 A 
ATOM     15  C   LIG    1        3.285  -5.965  -0.818  0.00  0.00    +0.124 A 
ATOM     16  O   LIG    1        3.134  -4.955  -1.755  0.00  0.00    -0.491 OA
ATOM     17  C   LIG    1        3.876  -4.956  -2.981  0.00  0.00    +0.154 C 
ATOM     18  C   LIG    1        3.010  -4.283  -4.059  0.00  0.00    +0.050 C 
ATOM     19  C   LIG    1        5.247  -4.274  -2.762  0.00  0.00    -0.037 C 
ATOM     20  N   LIG    1        5.061  -2.877  -2.138  0.00  0.00    +0.389 N 
ATOM     21  H   LIG    1        4.530  -2.304  -2.779  0.00  0.00    -0.085 HD
ATOM     22  H   LIG    1        4.535  -2.966  -1.280  0.00  0.00    -0.085 HD
ATOM     23  C   LIG    1        6.313  -2.115  -1.809  0.00  0.00    +0.019 C 
ATOM     24  C   LIG    1        6.022  -0.583  -1.804  0.00  0.00    +0.202 C 
ATOM     25  O   LIG    1        6.911   0.079  -2.348  0.00  0.00    -0.277 OA
ATOM     26  N   LIG    1        4.887   0.020  -1.309  0.00  0.00    -0.295 N 
ATOM     27  C   LIG    1        4.662   1.443  -1.635  0.00  0.00    +0.132 C 
ATOM     28  C   LIG    1        3.806  -0.485  -0.410  0.00  0.00    +0.158 C 
ATOM     29  C   LIG    1        4.266  -1.457   0.694  0.00  0.00    +0.038 C 
ATOM     30  C   LIG    1        2.520  -0.931  -1.148  0.00  0.00    +0.234 C 
ATOM     31  O   LIG    1        2.603  -1.269  -2.324  0.00  0.00    -0.274 OA
ATOM     32  N   LIG    1        1.331  -0.947  -0.519  0.00  0.00    -0.302 N 
ATOM     33  H   LIG    1        0.545  -1.305  -1.042  0.00  0.00    +0.150 HD
ENDROOT
BRANCH  23  34
ATOM     34  C   LIG    1        7.157  -2.636  -0.621  0.00  0.00    -0.016 C 
ATOM     35  C   LIG    1        8.262  -3.640  -0.864  0.00  0.00    +0.002 C 
ATOM     36  C   LIG    1        8.605  -2.220  -0.481  0.00  0.00    +0.002 C 
ENDBRANCH  23  34
BRANCH   1  37
ATOM     37  C   LIG    1       -0.139   0.730   0.556  0.00  0.00    +0.034 C 
BRANCH  37  39
ATOM     38  C   LIG    1       -0.559   3.203   0.049  0.00  0.00    +0.007 C 
ATOM     39  C   LIG    1        0.273   1.949  -0.310  0.00  0.00    -0.015 C 
ATOM     40  C   LIG    1        0.232   1.654  -1.827  0.00  0.00    +0.007 C 
ENDBRANCH  37  39
ENDBRANCH   1  37
TORSDOF 3
