REMARK  Name = DB16625
REMARK                            x       y       z     vdW  Elec       q    Type
REMARK                         _______ _______ _______ _____ _____    ______ ____
ROOT
ATOM      1  C   LIG    1       -0.428   3.531  -0.931  0.00  0.00    +0.180 C 
ATOM      2  C   LIG    1       -1.374   3.625  -2.147  0.00  0.00    +0.075 C 
ATOM      3  C   LIG    1       -1.813   5.077  -2.374  0.00  0.00    -0.064 C 
ATOM      4  C   LIG    1       -0.675   6.130  -2.493  0.00  0.00    -0.008 C 
ATOM      5  C   LIG    1        0.033   5.918  -3.861  0.00  0.00    +0.016 C 
ATOM      6  C   LIG    1       -1.279   7.584  -2.369  0.00  0.00    +0.003 C 
ATOM      7  C   LIG    1       -0.241   8.731  -2.629  0.00  0.00    +0.005 C 
ATOM      8  C   LIG    1       -0.852  10.151  -2.538  0.00  0.00    +0.015 C 
ATOM      9  C   LIG    1       -2.054  10.272  -3.506  0.00  0.00    +0.029 C 
ATOM     10  C   LIG    1       -1.611  10.153  -5.001  0.00  0.00    +0.019 C 
ATOM     11  C   LIG    1       -2.891  11.564  -3.427  0.00  0.00    +0.139 C 
ATOM     12  O   LIG    1       -2.477  12.688  -3.150  0.00  0.00    -0.297 OA
ATOM     13  C   LIG    1       -4.354  11.192  -3.730  0.00  0.00    +0.075 C 
ATOM     14  C   LIG    1       -4.395   9.656  -3.760  0.00  0.00    +0.012 C 
ATOM     15  C   LIG    1       -3.105   9.235  -3.064  0.00  0.00    +0.006 C 
ATOM     16  C   LIG    1       -2.593   7.774  -3.200  0.00  0.00    +0.001 C 
ATOM     17  C   LIG    1       -3.690   6.771  -2.772  0.00  0.00    +0.031 C 
ATOM     18  C   LIG    1        0.336   5.899  -1.320  0.00  0.00    +0.015 C 
ATOM     19  C   LIG    1       -3.121   5.393  -2.482  0.00  0.00    -0.027 C 
ATOM     20  C   LIG    1        0.792   4.441  -1.129  0.00  0.00    +0.046 C 
ENDROOT
BRANCH   1  21
ATOM     21  O   LIG    1        0.022   2.195  -0.713  0.00  0.00    -0.461 OA
BRANCH  21  22
ATOM     22  C   LIG    1       -0.744   1.274  -0.075  0.00  0.00    +0.307 C 
ATOM     23  O   LIG    1       -1.869   1.473   0.387  0.00  0.00    -0.251 OA
BRANCH  22  24
ATOM     24  C   LIG    1       -0.095  -0.114   0.035  0.00  0.00    +0.120 C 
BRANCH  24  25
ATOM     25  C   LIG    1        1.448  -0.138  -0.032  0.00  0.00    +0.011 C 
BRANCH  25  26
ATOM     26  C   LIG    1        2.019  -1.558   0.125  0.00  0.00    +0.001 C 
BRANCH  26  27
ATOM     27  C   LIG    1        3.556  -1.599   0.062  0.00  0.00    -0.000 C 
BRANCH  27  28
ATOM     28  C   LIG    1        4.125  -3.021   0.221  0.00  0.00    -0.003 C 
ATOM     29  C   LIG    1        5.658  -3.061   0.167  0.00  0.00    +0.004 C 
ENDBRANCH  27  28
ENDBRANCH  26  27
ENDBRANCH  25  26
ENDBRANCH  24  25
ENDBRANCH  22  24
ENDBRANCH  21  22
ENDBRANCH   1  21
TORSDOF 7
