REMARK  Name = DB16221
REMARK                            x       y       z     vdW  Elec       q    Type
REMARK                         _______ _______ _______ _____ _____    ______ ____
ROOT
ATOM      1  C   LIG    1       -0.877   1.464  -2.734  0.00  0.00    +0.005 C 
ATOM      2  C   LIG    1       -0.259   0.044  -2.838  0.00  0.00    +0.020 C 
ATOM      3  C   LIG    1       -0.812  -0.823  -3.999  0.00  0.00    +0.013 C 
ATOM      4  C   LIG    1       -2.103  -1.566  -3.647  0.00  0.00    +0.036 C 
ATOM      5  C   LIG    1       -1.835  -2.422  -2.418  0.00  0.00    -0.041 C 
ATOM      6  C   LIG    1       -2.280  -3.700  -2.371  0.00  0.00    +0.050 C 
ATOM      7  C   LIG    1       -2.094  -4.594  -1.235  0.00  0.00    +0.157 C 
ATOM      8  O   LIG    1       -2.609  -5.710  -1.195  0.00  0.00    -0.293 OA
ATOM      9  C   LIG    1       -1.111  -4.100  -0.166  0.00  0.00    +0.083 C 
ATOM     10  C   LIG    1       -1.171  -2.568   0.048  0.00  0.00    +0.043 C 
ATOM     11  C   LIG    1       -1.107  -1.814  -1.292  0.00  0.00    -0.044 C 
ATOM     12  C   LIG    1       -0.419  -0.646  -1.452  0.00  0.00    -0.055 C 
ATOM     13  C   LIG    1        0.218   0.151  -0.284  0.00  0.00    +0.046 C 
ATOM     14  C   LIG    1       -0.335   1.616  -0.320  0.00  0.00    +0.022 C 
ATOM     15  C   LIG    1       -0.173   2.358  -1.679  0.00  0.00    +0.007 C 
ATOM     16  C   LIG    1        1.353   2.573  -1.980  0.00  0.00    +0.014 C 
ATOM     17  C   LIG    1       -0.941   3.739  -1.870  0.00  0.00    +0.143 C 
ATOM     18  C   LIG    1       -1.184   3.765  -3.416  0.00  0.00    +0.042 C 
ATOM     19  C   LIG    1       -0.941   2.351  -3.975  0.00  0.00    +0.008 C 
ENDROOT
BRANCH  13  20
ATOM     20  C   LIG    1        1.739   0.010  -0.087  0.00  0.00    -0.040 A 
ATOM     21  C   LIG    1        2.515  -0.812  -0.914  0.00  0.00    +0.005 A 
ATOM     22  C   LIG    1        3.886  -0.929  -0.708  0.00  0.00    +0.011 A 
ATOM     23  C   LIG    1        4.511  -0.237   0.337  0.00  0.00    +0.017 A 
ATOM     24  C   LIG    1        3.732   0.571   1.176  0.00  0.00    +0.011 A 
ATOM     25  C   LIG    1        2.360   0.687   0.967  0.00  0.00    +0.005 A 
BRANCH  23  26
ATOM     26  C   LIG    1        5.991  -0.379   0.532  0.00  0.00    +0.160 C 
ATOM     27  O   LIG    1        6.712  -1.060  -0.197  0.00  0.00    -0.292 OA
ATOM     28  C   LIG    1        6.640   0.356   1.707  0.00  0.00    +0.091 C 
ENDBRANCH  23  26
ENDBRANCH  13  20
BRANCH  17  29
ATOM     29  C   LIG    1       -2.274   3.928  -1.025  0.00  0.00    +0.370 C 
ATOM     30  F   LIG    1       -2.003   3.825   0.280  0.00  0.00    -0.193 F 
ATOM     31  F   LIG    1       -3.142   2.952  -1.300  0.00  0.00    -0.193 F 
BRANCH  29  32
ATOM     32  C   LIG    1       -3.037   5.284  -1.184  0.00  0.00    +0.457 C 
ATOM     33  F   LIG    1       -3.428   5.537  -2.431  0.00  0.00    -0.165 F 
ATOM     34  F   LIG    1       -2.312   6.332  -0.793  0.00  0.00    -0.165 F 
ATOM     35  F   LIG    1       -4.141   5.288  -0.434  0.00  0.00    -0.165 F 
ENDBRANCH  29  32
ENDBRANCH  17  29
BRANCH  17  36
ATOM     36  O   LIG    1       -0.142   4.850  -1.480  0.00  0.00    -0.382 OA
ATOM     37  H   LIG    1        0.033   4.784  -0.538  0.00  0.00    +0.210 HD
ENDBRANCH  17  36
TORSDOF 5
