REMARK  Name = DB16241
REMARK                            x       y       z     vdW  Elec       q    Type
REMARK                         _______ _______ _______ _____ _____    ______ ____
ROOT
ATOM      1  C   LIG    1        2.162   0.632   0.197  0.00  0.00    +0.223 C 
ATOM      2  N   LIG    1        2.796   0.308   1.344  0.00  0.00    -0.269 N 
ATOM      3  H   LIG    1        2.234  -0.040   2.107  0.00  0.00    +0.156 HD
ATOM      4  O   LIG    1        2.698   1.145  -0.788  0.00  0.00    -0.275 OA
ENDROOT
BRANCH   2   5
ATOM      5  C   LIG    1        4.141   0.483   1.619  0.00  0.00    +0.147 A 
ATOM      6  C   LIG    1        5.213   0.783   0.753  0.00  0.00    +0.065 A 
ATOM      7  C   LIG    1        6.338   0.823   1.553  0.00  0.00    +0.110 A 
ATOM      8  N   LIG    1        5.885   0.569   2.820  0.00  0.00    -0.264 N 
ATOM      9  N   LIG    1        4.565   0.330   2.855  0.00  0.00    -0.156 NA
BRANCH   8  10
ATOM     10  C   LIG    1        6.676   0.435   4.037  0.00  0.00    +0.198 C 
BRANCH  10  11
ATOM     11  C   LIG    1        7.005  -1.009   4.390  0.00  0.00    +0.063 A 
ATOM     12  C   LIG    1        8.226  -1.582   4.021  0.00  0.00    +0.026 A 
ATOM     13  C   LIG    1        8.473  -2.912   4.369  0.00  0.00    +0.022 A 
ATOM     14  C   LIG    1        7.500  -3.632   5.070  0.00  0.00    +0.070 A 
ATOM     15  C   LIG    1        6.303  -2.987   5.400  0.00  0.00    +0.130 A 
ATOM     16  N   LIG    1        6.048  -1.695   5.071  0.00  0.00    -0.257 NA
BRANCH  14  17
ATOM     17  C   LIG    1        7.726  -5.019   5.448  0.00  0.00    +0.101 C 
ATOM     18  N   LIG    1        7.906  -6.121   5.749  0.00  0.00    -0.191 NA
ENDBRANCH  14  17
ENDBRANCH  10  11
ENDBRANCH   8  10
ENDBRANCH   2   5
BRANCH   1  19
ATOM     19  C   LIG    1        0.654   0.343   0.164  0.00  0.00    +0.131 C 
BRANCH  19  23
ATOM     20  C   LIG    1       -1.642   3.993  -0.040  0.00  0.00    -0.033 A 
ATOM     21  C   LIG    1       -1.433   3.233  -1.194  0.00  0.00    +0.005 A 
ATOM     22  C   LIG    1       -0.694   2.055  -1.130  0.00  0.00    +0.004 A 
ATOM     23  C   LIG    1       -0.167   1.627   0.091  0.00  0.00    -0.039 A 
ATOM     24  C   LIG    1       -0.369   2.391   1.244  0.00  0.00    +0.004 A 
ATOM     25  C   LIG    1       -1.106   3.570   1.178  0.00  0.00    +0.005 A 
BRANCH  20  26
ATOM     26  C   LIG    1       -2.453   5.285  -0.107  0.00  0.00    +0.091 C 
ATOM     27  C   LIG    1       -2.028   6.540   0.638  0.00  0.00    +0.021 C 
ATOM     28  C   LIG    1       -1.845   6.457  -0.861  0.00  0.00    +0.021 C 
BRANCH  26  30
ATOM     29  F   LIG    1       -4.654   6.264  -0.394  0.00  0.00    -0.170 F 
ATOM     30  C   LIG    1       -3.969   5.118  -0.416  0.00  0.00    +0.399 C 
ATOM     31  F   LIG    1       -4.166   4.579  -1.620  0.00  0.00    -0.170 F 
ATOM     32  F   LIG    1       -4.540   4.314   0.480  0.00  0.00    -0.170 F 
ENDBRANCH  26  30
ENDBRANCH  20  26
ENDBRANCH  19  23
ENDBRANCH   1  19
TORSDOF 8
