REMARK  Name = DB16276
REMARK                            x       y       z     vdW  Elec       q    Type
REMARK                         _______ _______ _______ _____ _____    ______ ____
ROOT
ATOM      1  C   LIG    1       -1.120  -0.915   0.991  0.00  0.00    -0.002 C 
ATOM      2  C   LIG    1       -0.248   0.319   1.359  0.00  0.00    -0.018 C 
ATOM      3  C   LIG    1        1.139   0.262   0.648  0.00  0.00    +0.001 C 
ATOM      4  C   LIG    1        1.021   0.008  -0.893  0.00  0.00    +0.078 C 
ATOM      5  N   LIG    1        0.184  -1.230  -1.072  0.00  0.00    -0.298 N 
ATOM      6  C   LIG    1        0.588  -2.397  -1.670  0.00  0.00    +0.216 C 
ATOM      7  O   LIG    1       -0.121  -3.403  -1.734  0.00  0.00    -0.276 OA
ATOM      8  C   LIG    1        2.002  -2.408  -2.287  0.00  0.00    +0.096 C 
ATOM      9  C   LIG    1        2.431  -1.023  -2.772  0.00  0.00    +0.011 C 
ATOM     10  C   LIG    1        2.406  -0.070  -1.590  0.00  0.00    +0.023 C 
ATOM     11  C   LIG    1        1.986   1.496   1.048  0.00  0.00    +0.002 C 
ATOM     12  C   LIG    1        1.254   2.828   0.840  0.00  0.00    -0.013 C 
ATOM     13  C   LIG    1       -0.097   2.840   1.583  0.00  0.00    -0.032 C 
ATOM     14  N   LIG    1       -0.990   1.677   1.148  0.00  0.00    +0.403 N 
ATOM     15  C   LIG    1       -2.316   1.672   1.912  0.00  0.00    -0.032 C 
ATOM     16  C   LIG    1       -3.217   0.495   1.483  0.00  0.00    -0.013 C 
ATOM     17  C   LIG    1       -1.194  -1.124  -0.541  0.00  0.00    +0.110 C 
ATOM     18  C   LIG    1       -2.510  -0.855   1.662  0.00  0.00    +0.002 C 
ENDROOT
BRANCH  14  19
ATOM     19  O   LIG    1       -1.281   1.868  -0.166  0.00  0.00    -0.444 OA
ATOM     20  H   LIG    1       -1.741   2.715  -0.275  0.00  0.00    +0.186 HD
ENDBRANCH  14  19
TORSDOF 1
