REMARK  Name = DB16185
REMARK                            x       y       z     vdW  Elec       q    Type
REMARK                         _______ _______ _______ _____ _____    ______ ____
ROOT
ATOM      1  N   LIG    1        1.512   0.077  -0.017  0.00  0.00    -0.281 N 
ATOM      2  H   LIG    1        1.893  -0.840  -0.196  0.00  0.00    +0.155 HD
ATOM      3  C   LIG    1        2.409   1.057   0.246  0.00  0.00    +0.248 C 
ATOM      4  O   LIG    1        2.102   2.209   0.561  0.00  0.00    -0.270 OA
ENDROOT
BRANCH   3   5
ATOM      5  C   LIG    1        3.868   0.665   0.135  0.00  0.00    +0.038 A 
ATOM      6  C   LIG    1        4.854   1.659   0.062  0.00  0.00    +0.013 A 
ATOM      7  C   LIG    1        6.202   1.324  -0.033  0.00  0.00    +0.005 A 
ATOM      8  C   LIG    1        6.606  -0.013  -0.056  0.00  0.00    -0.035 A 
ATOM      9  C   LIG    1        8.098  -0.323  -0.156  0.00  0.00    +0.045 C 
ATOM     10  C   LIG    1        5.631  -1.026   0.017  0.00  0.00    +0.029 A 
ATOM     11  C   LIG    1        4.278  -0.679   0.114  0.00  0.00    +0.030 A 
BRANCH  10  12
ATOM     12  C   LIG    1        5.984  -2.442  -0.006  0.00  0.00    -0.061 C 
ATOM     13  C   LIG    1        6.300  -3.622  -0.034  0.00  0.00    -0.059 C 
BRANCH  13  14
ATOM     14  C   LIG    1        6.702  -5.019  -0.067  0.00  0.00    +0.044 A 
ATOM     15  C   LIG    1        6.096  -5.952   0.785  0.00  0.00    +0.130 A 
ATOM     16  N   LIG    1        6.407  -7.277   0.830  0.00  0.00    -0.235 NA
ATOM     17  C   LIG    1        7.367  -7.650  -0.022  0.00  0.00    +0.156 A 
ATOM     18  N   LIG    1        7.897  -8.910  -0.206  0.00  0.00    -0.260 N 
ATOM     19  H   LIG    1        7.649  -9.764   0.271  0.00  0.00    +0.191 HD
ATOM     20  N   LIG    1        8.855  -8.907  -1.155  0.00  0.00    -0.180 NA
ATOM     21  C   LIG    1        8.963  -7.677  -1.594  0.00  0.00    +0.144 A 
ATOM     22  C   LIG    1        8.050  -6.806  -0.926  0.00  0.00    +0.040 A 
ATOM     23  C   LIG    1        7.702  -5.446  -0.949  0.00  0.00    +0.031 A 
ENDBRANCH  13  14
ENDBRANCH  10  12
ENDBRANCH   3   5
BRANCH   1  27
ATOM     24  C   LIG    1       -2.707   0.086  -0.008  0.00  0.00    -0.052 A 
ATOM     25  C   LIG    1       -2.018   1.292  -0.175  0.00  0.00    +0.004 A 
ATOM     26  C   LIG    1       -0.627   1.327  -0.182  0.00  0.00    +0.023 A 
ATOM     27  C   LIG    1        0.107   0.144  -0.021  0.00  0.00    +0.034 A 
ATOM     28  C   LIG    1       -0.579  -1.066   0.114  0.00  0.00    +0.036 A 
ATOM     29  C   LIG    1       -1.981  -1.119   0.124  0.00  0.00    +0.058 A 
BRANCH  29  30
ATOM     30  C   LIG    1       -2.678  -2.480   0.282  0.00  0.00    +0.418 C 
ATOM     31  F   LIG    1       -3.397  -2.751  -0.808  0.00  0.00    -0.166 F 
ATOM     32  F   LIG    1       -3.486  -2.470   1.342  0.00  0.00    -0.166 F 
ATOM     33  F   LIG    1       -1.814  -3.483   0.452  0.00  0.00    -0.166 F 
ENDBRANCH  29  30
BRANCH  24  34
ATOM     34  C   LIG    1       -4.236   0.139  -0.003  0.00  0.00    -0.042 C 
BRANCH  34  39
ATOM     35  C   LIG    1       -7.292   2.358   3.147  0.00  0.00    +0.104 C 
ATOM     36  N   LIG    1       -6.637   1.113   3.544  0.00  0.00    -0.309 NA
ATOM     37  C   LIG    1       -5.176   1.220   3.640  0.00  0.00    +0.065 C 
ATOM     38  C   LIG    1       -4.491   1.332   2.256  0.00  0.00    -0.063 C 
ATOM     39  N   LIG    1       -4.879   0.100   1.404  0.00  0.00    +0.384 N 
ATOM     40  H   LIG    1       -4.554  -0.728   1.885  0.00  0.00    -0.081 HD
ATOM     41  C   LIG    1       -6.419   0.008   1.297  0.00  0.00    -0.063 C 
ATOM     42  C   LIG    1       -7.018  -0.045   2.725  0.00  0.00    +0.065 C 
ENDBRANCH  34  39
ENDBRANCH  24  34
ENDBRANCH   1  27
TORSDOF 7
