REMARK  Name = DB16015
REMARK                            x       y       z     vdW  Elec       q    Type
REMARK                         _______ _______ _______ _____ _____    ______ ____
ROOT
ATOM      1  C   LIG    1       -1.841   0.124  -1.001  0.00  0.00    +0.226 C 
ATOM      2  O   LIG    1       -1.029   0.525   0.063  0.00  0.00    -0.348 OA
ATOM      3  C   LIG    1        0.298   0.015  -0.076  0.00  0.00    +0.176 C 
ATOM      4  C   LIG    1        0.266  -0.763  -1.401  0.00  0.00    +0.165 C 
ATOM      5  C   LIG    1       -0.893  -0.140  -2.164  0.00  0.00    +0.089 C 
ENDROOT
BRANCH   1   9
ATOM      6  C   LIG    1       -3.494   3.381  -1.723  0.00  0.00    +0.030 A 
ATOM      7  C   LIG    1       -3.126   4.817  -2.073  0.00  0.00    +0.051 C 
ATOM      8  C   LIG    1       -2.587   2.397  -1.537  0.00  0.00    +0.101 A 
ATOM      9  N   LIG    1       -2.908   1.096  -1.216  0.00  0.00    -0.274 N 
ATOM     10  C   LIG    1       -4.227   0.725  -1.025  0.00  0.00    +0.331 A 
ATOM     11  O   LIG    1       -4.640  -0.391  -0.706  0.00  0.00    -0.246 OA
ATOM     12  N   LIG    1       -5.123   1.742  -1.231  0.00  0.00    -0.275 N 
ATOM     13  H   LIG    1       -6.092   1.487  -1.111  0.00  0.00    +0.173 HD
ATOM     14  C   LIG    1       -4.909   3.048  -1.570  0.00  0.00    +0.257 A 
ATOM     15  O   LIG    1       -5.843   3.835  -1.718  0.00  0.00    -0.267 OA
ENDBRANCH   1   9
BRANCH   3  16
ATOM     16  C   LIG    1        1.256   1.222  -0.058  0.00  0.00    +0.206 C 
BRANCH  16  17
ATOM     17  O   LIG    1        2.595   0.846  -0.346  0.00  0.00    -0.284 OA
BRANCH  17  18
ATOM     18  P   LIG    1        3.655   0.471   0.973  0.00  0.00    +0.475 P 
ATOM     19  O   LIG    1        5.025   0.204   0.389  0.00  0.00    -0.227 OA
BRANCH  18  20
ATOM     20  O   LIG    1        3.425   1.475   2.082  0.00  0.00    -0.302 OA
ATOM     21  H   LIG    1        2.483   1.495   2.310  0.00  0.00    +0.222 HD
ENDBRANCH  18  20
BRANCH  18  22
ATOM     22  O   LIG    1        2.957  -1.031   1.471  0.00  0.00    -0.287 OA
BRANCH  22  23
ATOM     23  C   LIG    1        3.071  -2.147   0.599  0.00  0.00    +0.172 C 
BRANCH  23  24
ATOM     24  C   LIG    1        3.956  -3.243   1.216  0.00  0.00    +0.028 C 
BRANCH  24  25
ATOM     25  C   LIG    1        5.425  -2.828   1.418  0.00  0.00    -0.001 C 
ATOM     26  C   LIG    1        6.291  -3.955   1.996  0.00  0.00    +0.004 C 
ENDBRANCH  24  25
ENDBRANCH  23  24
ENDBRANCH  22  23
ENDBRANCH  18  22
ENDBRANCH  17  18
ENDBRANCH  16  17
ENDBRANCH   3  16
BRANCH   4  27
ATOM     27  O   LIG    1       -0.026  -2.119  -1.096  0.00  0.00    -0.281 OA
BRANCH  27  28
ATOM     28  P   LIG    1        0.406  -3.330  -2.250  0.00  0.00    +0.475 P 
ATOM     29  O   LIG    1        1.907  -3.507  -2.224  0.00  0.00    -0.227 OA
BRANCH  28  30
ATOM     30  O   LIG    1       -0.372  -3.094  -3.527  0.00  0.00    -0.302 OA
ATOM     31  H   LIG    1       -1.316  -3.008  -3.320  0.00  0.00    +0.222 HD
ENDBRANCH  28  30
BRANCH  28  32
ATOM     32  O   LIG    1       -0.308  -4.662  -1.411  0.00  0.00    -0.287 OA
BRANCH  32  33
ATOM     33  C   LIG    1       -1.717  -4.651  -1.232  0.00  0.00    +0.172 C 
BRANCH  33  34
ATOM     34  C   LIG    1       -2.063  -4.818   0.257  0.00  0.00    +0.028 C 
BRANCH  34  35
ATOM     35  C   LIG    1       -1.567  -3.660   1.143  0.00  0.00    -0.001 C 
ATOM     36  C   LIG    1       -1.967  -3.817   2.615  0.00  0.00    +0.004 C 
ENDBRANCH  34  35
ENDBRANCH  33  34
ENDBRANCH  32  33
ENDBRANCH  28  32
ENDBRANCH  27  28
ENDBRANCH   4  27
TORSDOF 16
