REMARK  Name = DB16340
REMARK                            x       y       z     vdW  Elec       q    Type
REMARK                         _______ _______ _______ _____ _____    ______ ____
ROOT
ATOM      1  F   LIG    1        0.515   1.212  -0.762  0.00  0.00    +0.000 F 
ATOM      2  B   LIG    1        0.179   0.309   0.228  0.00  0.00    +0.000 B 
ATOM      3  F   LIG    1       -1.112  -0.136   0.026  0.00  0.00    +0.000 F 
ATOM      4  F   LIG    1        0.267   0.923   1.461  0.00  0.00    +0.000 F 
ATOM      5  F   LIG    1        1.048  -0.764   0.185  0.00  0.00    +0.000 F 
ENDROOT
TORSDOF 0
