REMARK  Name = DB16880
REMARK                            x       y       z     vdW  Elec       q    Type
REMARK                         _______ _______ _______ _____ _____    ______ ____
ROOT
ATOM      1  C   LIG    1       -0.595  -1.196   0.885  0.00  0.00    +0.109 C 
ATOM      2  C   LIG    1       -0.934  -2.275  -0.143  0.00  0.00    +0.311 C 
ATOM      3  O   LIG    1       -1.201  -3.457   0.065  0.00  0.00    -0.251 OA
ATOM      4  O   LIG    1       -0.899  -1.771  -1.389  0.00  0.00    -0.464 OA
ATOM      5  C   LIG    1       -0.709  -0.365  -1.388  0.00  0.00    +0.236 C 
ATOM      6  C   LIG    1       -0.171  -0.017   0.000  0.00  0.00    +0.045 C 
ENDROOT
BRANCH   1   7
ATOM      7  C   LIG    1       -1.792  -0.935   1.831  0.00  0.00    +0.050 C 
BRANCH   7  13
ATOM      8  C   LIG    1       -0.837  -0.741   4.163  0.00  0.00    +0.007 A 
ATOM      9  C   LIG    1       -0.438   0.008   5.267  0.00  0.00    +0.049 A 
ATOM     10  C   LIG    1       -0.580   1.396   5.261  0.00  0.00    +0.158 A 
ATOM     11  C   LIG    1       -1.124   2.052   4.148  0.00  0.00    +0.162 A 
ATOM     12  C   LIG    1       -1.534   1.281   3.045  0.00  0.00    +0.053 A 
ATOM     13  C   LIG    1       -1.386  -0.110   3.046  0.00  0.00    -0.043 A 
BRANCH  10  14
ATOM     14  O   LIG    1       -0.165   2.108   6.358  0.00  0.00    -0.503 OA
ATOM     15  H   LIG    1        0.220   1.553   7.040  0.00  0.00    +0.292 HD
ENDBRANCH  10  14
BRANCH  11  16
ATOM     16  O   LIG    1       -1.216   3.432   4.200  0.00  0.00    -0.491 OA
ATOM     17  C   LIG    1       -1.682   4.144   3.059  0.00  0.00    +0.277 C 
ENDBRANCH  11  16
ENDBRANCH   7  13
ENDBRANCH   1   7
BRANCH   6  18
ATOM     18  C   LIG    1        1.356   0.238   0.022  0.00  0.00    +0.043 C 
BRANCH  18  19
ATOM     19  C   LIG    1        1.824   0.841   1.341  0.00  0.00    -0.043 A 
ATOM     20  C   LIG    1        1.704   2.212   1.561  0.00  0.00    +0.007 A 
ATOM     21  C   LIG    1        2.082   2.763   2.782  0.00  0.00    +0.049 A 
ATOM     22  C   LIG    1        2.584   1.948   3.811  0.00  0.00    +0.161 A 
ATOM     23  C   LIG    1        2.716   0.568   3.593  0.00  0.00    +0.162 A 
ATOM     24  C   LIG    1        2.340   0.027   2.351  0.00  0.00    +0.053 A 
BRANCH  22  25
ATOM     25  O   LIG    1        2.951   2.428   5.056  0.00  0.00    -0.491 OA
ATOM     26  C   LIG    1        2.785   3.811   5.350  0.00  0.00    +0.277 C 
ENDBRANCH  22  25
BRANCH  23  27
ATOM     27  O   LIG    1        3.203  -0.191   4.643  0.00  0.00    -0.491 OA
ATOM     28  C   LIG    1        3.310  -1.603   4.495  0.00  0.00    +0.277 C 
ENDBRANCH  23  27
ENDBRANCH  18  19
ENDBRANCH   6  18
TORSDOF 8
