REMARK  Name = DB16580
REMARK                            x       y       z     vdW  Elec       q    Type
REMARK                         _______ _______ _______ _____ _____    ______ ____
ROOT
ATOM      1  C   LIG    1        1.590   0.095  -0.099  0.00  0.00    -0.012 A 
ATOM      2  C   LIG    1        2.456  -1.057   0.013  0.00  0.00    +0.004 A 
ATOM      3  C   LIG    1        2.245  -2.446  -0.013  0.00  0.00    +0.014 A 
ATOM      4  C   LIG    1        3.329  -3.319   0.127  0.00  0.00    -0.044 A 
ATOM      5  C   LIG    1        4.621  -2.809   0.284  0.00  0.00    +0.006 A 
ATOM      6  C   LIG    1        4.882  -1.441   0.315  0.00  0.00    +0.026 A 
ATOM      7  C   LIG    1        3.787  -0.583   0.181  0.00  0.00    +0.047 A 
ATOM      8  N   LIG    1        3.714   0.788   0.180  0.00  0.00    -0.354 N 
ATOM      9  H   LIG    1        4.478   1.440   0.286  0.00  0.00    +0.166 HD
ATOM     10  C   LIG    1        2.416   1.211   0.022  0.00  0.00    +0.053 A 
ENDROOT
BRANCH  10  11
ATOM     11  C   LIG    1        2.077   2.666   0.020  0.00  0.00    +0.020 A 
ATOM     12  C   LIG    1        2.643   3.610  -0.865  0.00  0.00    -0.033 A 
ATOM     13  C   LIG    1        3.611   3.140  -1.953  0.00  0.00    +0.045 C 
ATOM     14  C   LIG    1        2.294   4.981  -0.781  0.00  0.00    -0.003 A 
ATOM     15  C   LIG    1        2.924   6.008  -1.717  0.00  0.00    +0.048 C 
ATOM     16  C   LIG    1        1.352   5.369   0.195  0.00  0.00    +0.159 A 
ATOM     17  N   LIG    1        0.806   6.566   0.533  0.00  0.00    -0.215 NA
ATOM     18  C   LIG    1       -0.002   6.237   1.523  0.00  0.00    +0.246 A 
ATOM     19  N   LIG    1       -0.060   4.971   1.888  0.00  0.00    -0.154 NA
ATOM     20  N   LIG    1        0.812   4.398   1.035  0.00  0.00    -0.220 N 
ATOM     21  C   LIG    1        1.147   3.079   0.974  0.00  0.00    +0.125 A 
ENDBRANCH  10  11
BRANCH   4  22
ATOM     22  C   LIG    1        3.094  -4.832   0.113  0.00  0.00    +0.016 C 
ATOM     23  C   LIG    1        3.784  -5.524  -1.085  0.00  0.00    -0.011 C 
ATOM     24  C   LIG    1        3.550  -7.046  -1.089  0.00  0.00    -0.078 C 
ATOM     25  N   LIG    1        4.022  -7.639   0.260  0.00  0.00    +0.385 N 
ATOM     26  H   LIG    1        5.001  -7.414   0.370  0.00  0.00    -0.081 HD
ATOM     27  C   LIG    1        3.233  -7.014   1.437  0.00  0.00    -0.078 C 
ATOM     28  C   LIG    1        3.473  -5.495   1.456  0.00  0.00    -0.011 C 
BRANCH  25  29
ATOM     29  C   LIG    1        3.869  -9.184   0.249  0.00  0.00    +0.018 C 
BRANCH  29  30
ATOM     30  C   LIG    1        4.782  -9.856   1.291  0.00  0.00    +0.194 C 
ATOM     31  O   LIG    1        5.670  -9.240   1.881  0.00  0.00    -0.278 OA
ATOM     32  N   LIG    1        4.571 -11.156   1.508  0.00  0.00    -0.331 N 
ATOM     33  H   LIG    1        5.143 -11.655   2.175  0.00  0.00    +0.145 HD
ATOM     34  H   LIG    1        3.847 -11.652   1.010  0.00  0.00    +0.145 HD
ENDBRANCH  29  30
ENDBRANCH  25  29
ENDBRANCH   4  22
BRANCH   1  36
ATOM     35  C   LIG    1       -0.662  -0.545   0.881  0.00  0.00    +0.012 C 
ATOM     36  C   LIG    1        0.080   0.084  -0.313  0.00  0.00    +0.015 C 
ATOM     37  C   LIG    1       -0.304  -0.577  -1.650  0.00  0.00    +0.012 C 
ENDBRANCH   1  36
TORSDOF 5
