REMARK  Name = DB16965
REMARK                            x       y       z     vdW  Elec       q    Type
REMARK                         _______ _______ _______ _____ _____    ______ ____
ROOT
ATOM      1  C   LIG    1        2.021  -0.750  -1.074  0.00  0.00    +0.127 A 
ATOM      2  N   LIG    1        3.395  -0.808  -1.280  0.00  0.00    -0.298 N 
ATOM      3  C   LIG    1        4.347  -0.303  -0.265  0.00  0.00    +0.154 C 
ATOM      4  C   LIG    1        4.003  -1.322  -2.413  0.00  0.00    +0.263 A 
ATOM      5  O   LIG    1        5.229  -1.330  -2.567  0.00  0.00    -0.267 OA
ATOM      6  C   LIG    1        3.015  -1.875  -3.441  0.00  0.00    +0.087 A 
ATOM      7  C   LIG    1        3.426  -2.456  -4.661  0.00  0.00    +0.057 A 
ATOM      8  C   LIG    1        2.461  -2.939  -5.545  0.00  0.00    +0.044 A 
ATOM      9  C   LIG    1        1.103  -2.859  -5.247  0.00  0.00    +0.086 A 
ATOM     10  C   LIG    1        0.684  -2.286  -4.042  0.00  0.00    +0.161 A 
ATOM     11 CL   LIG    1       -0.039  -3.478  -6.390  0.00  0.00    -0.080 Cl
ATOM     12 CL   LIG    1        5.079  -2.620  -5.158  0.00  0.00    -0.083 Cl
ATOM     13  C   LIG    1        1.644  -1.795  -3.141  0.00  0.00    +0.122 A 
ATOM     14  N   LIG    1        1.198  -1.224  -1.939  0.00  0.00    -0.228 NA
ENDROOT
BRANCH  10  15
ATOM     15  O   LIG    1       -0.663  -2.212  -3.763  0.00  0.00    -0.503 OA
ATOM     16  H   LIG    1       -1.211  -2.583  -4.458  0.00  0.00    +0.292 HD
ENDBRANCH  10  15
BRANCH   1  17
ATOM     17  C   LIG    1        1.472  -0.122   0.228  0.00  0.00    +0.156 C 
BRANCH  17  18
ATOM     18  N   LIG    1        0.017  -0.001   0.353  0.00  0.00    -0.310 NA
ATOM     19  H   LIG    1       -0.235   0.085   1.327  0.00  0.00    +0.122 HD
BRANCH  18  21
ATOM     20  C   LIG    1       -2.037   1.193  -0.218  0.00  0.00    +0.020 C 
ATOM     21  C   LIG    1       -0.514   1.143  -0.381  0.00  0.00    +0.078 C 
ENDBRANCH  18  21
ENDBRANCH  17  18
ENDBRANCH   1  17
TORSDOF 4
