REMARK  Name = DB16890
REMARK                            x       y       z     vdW  Elec       q    Type
REMARK                         _______ _______ _______ _____ _____    ______ ____
ROOT
ATOM      1  C   LIG    1       -1.408  -0.878  -3.659  0.00  0.00    -0.023 C 
ATOM      2  C   LIG    1       -0.528  -2.132  -4.023  0.00  0.00    +0.012 C 
ATOM      3  C   LIG    1       -2.743  -1.486  -3.066  0.00  0.00    +0.008 C 
ATOM      4  C   LIG    1       -2.591  -2.144  -1.669  0.00  0.00    +0.010 C 
ATOM      5  C   LIG    1       -1.994  -1.143  -0.644  0.00  0.00    -0.002 C 
ATOM      6  C   LIG    1       -1.608  -1.768   0.714  0.00  0.00    +0.010 C 
ATOM      7  C   LIG    1       -0.427  -0.933   1.256  0.00  0.00    +0.009 C 
ATOM      8  C   LIG    1        0.117  -0.117   0.055  0.00  0.00    +0.018 C 
ATOM      9  C   LIG    1       -0.587  -0.754  -1.168  0.00  0.00    +0.008 C 
ATOM     10  C   LIG    1       -0.672  -0.016  -2.546  0.00  0.00    -0.000 C 
ATOM     11  C   LIG    1        0.670   0.538  -3.067  0.00  0.00    +0.005 C 
ATOM     12  C   LIG    1        0.490   1.395  -4.329  0.00  0.00    +0.005 C 
ATOM     13  C   LIG    1       -0.292   0.670  -5.469  0.00  0.00    +0.002 C 
ATOM     14  C   LIG    1       -0.307   1.438  -6.869  0.00  0.00    -0.025 C 
ATOM     15  C   LIG    1       -0.953   0.450  -7.927  0.00  0.00    +0.003 C 
ATOM     16  C   LIG    1       -0.857   0.880  -9.452  0.00  0.00    -0.006 C 
ATOM     17  C   LIG    1       -1.701   2.143  -9.782  0.00  0.00    +0.014 C 
ATOM     18  C   LIG    1       -1.306  -0.316 -10.341  0.00  0.00    +0.014 C 
ATOM     19  C   LIG    1        0.653   1.148  -9.783  0.00  0.00    +0.120 C 
ATOM     20  C   LIG    1        1.341   2.114  -8.796  0.00  0.00    +0.032 C 
ATOM     21  C   LIG    1       -2.365  -0.005  -7.462  0.00  0.00    +0.005 C 
ATOM     22  C   LIG    1       -2.309  -0.748  -6.115  0.00  0.00    +0.008 C 
ATOM     23  C   LIG    1       -1.036   2.817  -6.781  0.00  0.00    +0.012 C 
ATOM     24  C   LIG    1        1.170   1.671  -7.330  0.00  0.00    +0.010 C 
ATOM     25  C   LIG    1       -1.675   0.072  -4.944  0.00  0.00    -0.023 C 
ATOM     26  C   LIG    1       -2.677   1.229  -4.598  0.00  0.00    +0.012 C 
ENDROOT
BRANCH   8  27
ATOM     27  C   LIG    1        1.650  -0.062   0.020  0.00  0.00    -0.076 C 
ATOM     28  C   LIG    1        2.400  -1.347  -0.311  0.00  0.00    +0.039 C 
ATOM     29  C   LIG    1        2.313   1.079   0.281  0.00  0.00    +0.007 C 
ENDBRANCH   8  27
BRANCH  19  30
ATOM     30  O   LIG    1        0.875   1.605 -11.107  0.00  0.00    -0.391 OA
ATOM     31  H   LIG    1        0.593   0.919 -11.716  0.00  0.00    +0.210 HD
ENDBRANCH  19  30
BRANCH   5  32
ATOM     32  C   LIG    1       -2.956   0.071  -0.381  0.00  0.00    +0.163 C 
BRANCH  32  33
ATOM     33  O   LIG    1       -4.231  -0.346   0.070  0.00  0.00    -0.394 OA
ATOM     34  H   LIG    1       -4.776   0.433   0.206  0.00  0.00    +0.209 HD
ENDBRANCH  32  33
ENDBRANCH   5  32
TORSDOF 4
