REMARK  Name = DB16832
REMARK                            x       y       z     vdW  Elec       q    Type
REMARK                         _______ _______ _______ _____ _____    ______ ____
ROOT
ATOM      1  N   LIG    1       -0.520   1.438  -0.018  0.00  0.00    -0.269 NA
ATOM      2  C   LIG    1       -0.085   2.500   0.754  0.00  0.00    +0.158 C 
ATOM      3  N   LIG    1       -0.876   3.588   0.489  0.00  0.00    -0.293 NA
ATOM      4  H   LIG    1       -0.780   4.505   0.904  0.00  0.00    +0.124 HD
ATOM      5  C   LIG    1       -1.829   3.214  -0.435  0.00  0.00    +0.096 C 
ATOM      6  C   LIG    1       -1.643   1.868  -0.747  0.00  0.00    +0.061 C 
ATOM      7  C   LIG    1       -2.387   0.945  -1.704  0.00  0.00    +0.026 C 
ATOM      8  C   LIG    1       -2.078  -0.523  -1.356  0.00  0.00    +0.004 C 
ATOM      9  C   LIG    1       -0.569  -0.745  -1.187  0.00  0.00    +0.024 C 
ATOM     10  C   LIG    1        0.032   0.068  -0.010  0.00  0.00    +0.089 C 
ENDROOT
BRANCH  10  11
ATOM     11  C   LIG    1        1.564   0.029  -0.011  0.00  0.00    -0.030 A 
ATOM     12  C   LIG    1        2.289   0.698  -1.003  0.00  0.00    +0.006 A 
ATOM     13  C   LIG    1        3.681   0.657  -1.001  0.00  0.00    +0.019 A 
ATOM     14  C   LIG    1        4.353  -0.055  -0.005  0.00  0.00    +0.052 A 
ATOM     15  C   LIG    1        3.635  -0.725   0.987  0.00  0.00    +0.019 A 
ATOM     16  C   LIG    1        2.243  -0.684   0.982  0.00  0.00    +0.006 A 
BRANCH  14  17
ATOM     17  C   LIG    1        5.807  -0.101  -0.003  0.00  0.00    +0.099 C 
ATOM     18  N   LIG    1        6.964  -0.137  -0.001  0.00  0.00    -0.191 NA
ENDBRANCH  14  17
ENDBRANCH  10  11
TORSDOF 2
