REMARK  Name = DB16707
REMARK                            x       y       z     vdW  Elec       q    Type
REMARK                         _______ _______ _______ _____ _____    ______ ____
ROOT
ATOM      1  C   LIG    1       -1.924   1.364  -0.059  0.00  0.00    +0.081 A 
ATOM      2  C   LIG    1       -2.641   0.092  -0.009  0.00  0.00    +0.018 A 
ATOM      3  C   LIG    1       -4.008  -0.164  -0.054  0.00  0.00    +0.055 A 
ATOM      4  S   LIG    1       -4.356  -1.855   0.048  0.00  0.00    -0.104 S 
ATOM      5  C   LIG    1       -2.661  -2.209   0.155  0.00  0.00    +0.059 A 
ATOM      6  C   LIG    1       -1.845  -1.079   0.112  0.00  0.00    +0.057 A 
ATOM      7  C   LIG    1       -0.381  -1.063   0.174  0.00  0.00    +0.276 A 
ATOM      8  O   LIG    1        0.348  -2.055   0.269  0.00  0.00    -0.266 OA
ATOM      9  N   LIG    1        0.095   0.240   0.095  0.00  0.00    -0.222 N 
ATOM     10  N   LIG    1       -0.648   1.416   0.013  0.00  0.00    -0.172 NA
ENDROOT
BRANCH   1  11
ATOM     11  C   LIG    1       -2.687   2.690  -0.183  0.00  0.00    +0.178 C 
BRANCH  11  12
ATOM     12  C   LIG    1       -3.086   2.960  -1.651  0.00  0.00    +0.311 C 
ATOM     13  O   LIG    1       -4.257   2.678  -1.997  0.00  0.00    -0.251 OA
BRANCH  12  14
ATOM     14  O   LIG    1       -2.229   3.476  -2.406  0.00  0.00    -0.480 OA
ATOM     15  H   LIG    1       -2.500   3.974  -3.152  0.00  0.00    +0.295 HD
ENDBRANCH  12  14
ENDBRANCH  11  12
ENDBRANCH   1  11
BRANCH   9  16
ATOM     16  C   LIG    1        1.562   0.428   0.028  0.00  0.00    +0.210 C 
BRANCH  16  17
ATOM     17  C   LIG    1        2.188   0.123  -1.332  0.00  0.00    +0.101 A 
ATOM     18  S   LIG    1        3.927   0.102  -1.554  0.00  0.00    -0.070 S 
ATOM     19  C   LIG    1        3.674  -0.293  -3.247  0.00  0.00    +0.039 A 
ATOM     20  C   LIG    1        4.604  -0.518  -4.269  0.00  0.00    +0.018 A 
ATOM     21  C   LIG    1        4.115  -0.822  -5.539  0.00  0.00    +0.013 A 
ATOM     22  C   LIG    1        2.741  -0.899  -5.805  0.00  0.00    +0.057 A 
ATOM     23  C   LIG    1        1.813  -0.672  -4.779  0.00  0.00    +0.041 A 
ATOM     24  C   LIG    1        2.282  -0.367  -3.493  0.00  0.00    +0.079 A 
ATOM     25  N   LIG    1        1.494  -0.127  -2.414  0.00  0.00    -0.242 NA
BRANCH  22  26
ATOM     26  C   LIG    1        2.233  -1.244  -7.206  0.00  0.00    +0.417 C 
ATOM     27  F   LIG    1        1.296  -2.190  -7.137  0.00  0.00    -0.166 F 
ATOM     28  F   LIG    1        3.205  -1.685  -8.007  0.00  0.00    -0.166 F 
ATOM     29  F   LIG    1        1.698  -0.155  -7.758  0.00  0.00    -0.166 F 
ENDBRANCH  22  26
ENDBRANCH  16  17
ENDBRANCH   9  16
TORSDOF 6
