REMARK  Name = DB16153
REMARK                            x       y       z     vdW  Elec       q    Type
REMARK                         _______ _______ _______ _____ _____    ______ ____
ROOT
ATOM      1  N   LIG    1        1.575   0.182   0.534  0.00  0.00    -0.226 N 
ATOM      2  N   LIG    1        2.338   0.873  -0.319  0.00  0.00    -0.145 NA
ATOM      3  C   LIG    1        3.562   0.489  -0.008  0.00  0.00    +0.182 A 
ATOM      4  N   LIG    1        3.644  -0.425   0.955  0.00  0.00    -0.214 NA
ATOM      5  C   LIG    1        2.393  -0.617   1.283  0.00  0.00    +0.225 A 
ENDROOT
BRANCH   3   6
ATOM      6  C   LIG    1        4.773   1.057  -0.696  0.00  0.00    +0.022 A 
ATOM      7  C   LIG    1        6.050   0.531  -0.457  0.00  0.00    +0.024 A 
ATOM      8  C   LIG    1        7.181   1.057  -1.093  0.00  0.00    +0.056 A 
ATOM      9  C   LIG    1        7.028   2.130  -1.977  0.00  0.00    +0.024 A 
ATOM     10  C   LIG    1        5.766   2.676  -2.231  0.00  0.00    +0.056 A 
ATOM     11  C   LIG    1        4.649   2.132  -1.589  0.00  0.00    +0.024 A 
BRANCH   8  12
ATOM     12  C   LIG    1        8.570   0.475  -0.835  0.00  0.00    +0.417 C 
ATOM     13  F   LIG    1        9.222   1.267   0.017  0.00  0.00    -0.166 F 
ATOM     14  F   LIG    1        9.269   0.402  -1.969  0.00  0.00    -0.166 F 
ATOM     15  F   LIG    1        8.512  -0.750  -0.308  0.00  0.00    -0.166 F 
ENDBRANCH   8  12
BRANCH  10  16
ATOM     16  C   LIG    1        5.618   3.852  -3.197  0.00  0.00    +0.417 C 
ATOM     17  F   LIG    1        4.508   4.553  -2.958  0.00  0.00    -0.166 F 
ATOM     18  F   LIG    1        5.558   3.383  -4.443  0.00  0.00    -0.166 F 
ATOM     19  F   LIG    1        6.657   4.683  -3.104  0.00  0.00    -0.166 F 
ENDBRANCH  10  16
ENDBRANCH   3   6
BRANCH   1  21
ATOM     20  C   LIG    1       -0.655   1.233   0.099  0.00  0.00    +0.065 C 
ATOM     21  C   LIG    1        0.166   0.251   0.569  0.00  0.00    +0.127 C 
BRANCH  20  22
ATOM     22  C   LIG    1       -0.158   2.513  -0.486  0.00  0.00    +0.025 A 
ATOM     23  C   LIG    1       -0.513   2.930  -1.777  0.00  0.00    +0.122 A 
ATOM     24  N   LIG    1       -0.056   4.083  -2.333  0.00  0.00    -0.243 NA
ATOM     25  C   LIG    1        0.775   4.827  -1.561  0.00  0.00    +0.221 A 
ATOM     26  N   LIG    1        1.179   4.531  -0.300  0.00  0.00    -0.243 NA
ATOM     27  C   LIG    1        0.698   3.372   0.221  0.00  0.00    +0.122 A 
ENDBRANCH  20  22
BRANCH  20  31
ATOM     28  N   LIG    1       -2.862   2.098   0.289  0.00  0.00    -0.325 N 
ATOM     29  H   LIG    1       -2.447   3.017   0.248  0.00  0.00    +0.145 HD
ATOM     30  H   LIG    1       -3.863   2.007   0.383  0.00  0.00    +0.145 HD
ATOM     31  C   LIG    1       -2.094   1.003   0.216  0.00  0.00    +0.244 C 
ATOM     32  O   LIG    1       -2.602  -0.117   0.275  0.00  0.00    -0.270 OA
ENDBRANCH  20  31
ENDBRANCH   1  21
TORSDOF 6
