REMARK  Name = DB16050
REMARK                            x       y       z     vdW  Elec       q    Type
REMARK                         _______ _______ _______ _____ _____    ______ ____
ROOT
ATOM      1  C   LIG    1        0.547   2.435  -2.188  0.00  0.00    -0.061 C 
ATOM      2  C   LIG    1        0.062   1.822  -1.251  0.00  0.00    -0.097 C 
ENDROOT
BRANCH   1   4
ATOM      3  C   LIG    1        2.422   3.739  -3.292  0.00  0.00    +0.139 A 
ATOM      4  C   LIG    1        1.145   3.136  -3.323  0.00  0.00    +0.083 A 
ATOM      5  C   LIG    1        0.434   3.220  -4.525  0.00  0.00    +0.134 A 
ATOM      6  N   LIG    1        0.924   3.845  -5.626  0.00  0.00    -0.221 NA
ATOM      7  C   LIG    1        2.152   4.407  -5.515  0.00  0.00    +0.221 A 
ATOM      8  N   LIG    1        2.919   4.367  -4.395  0.00  0.00    -0.198 NA
BRANCH   3   9
ATOM      9  N   LIG    1        3.216   3.706  -2.125  0.00  0.00    -0.328 N 
ATOM     10  H   LIG    1        2.783   3.387  -1.271  0.00  0.00    +0.147 HD
BRANCH   9  11
ATOM     11  C   LIG    1        4.493   4.409  -2.025  0.00  0.00    +0.102 C 
BRANCH  11  13
ATOM     12  C   LIG    1        5.696   6.595  -1.463  0.00  0.00    +0.005 C 
ATOM     13  C   LIG    1        4.356   5.849  -1.503  0.00  0.00    +0.015 C 
ENDBRANCH  11  13
ENDBRANCH   9  11
ENDBRANCH   3   9
BRANCH   7  14
ATOM     14  N   LIG    1        2.635   5.030  -6.677  0.00  0.00    -0.284 N 
ATOM     15  H   LIG    1        2.046   4.870  -7.481  0.00  0.00    +0.155 HD
BRANCH  14  16
ATOM     16  C   LIG    1        3.746   5.849  -6.951  0.00  0.00    +0.034 A 
ATOM     17  C   LIG    1        4.550   6.429  -5.959  0.00  0.00    +0.024 A 
ATOM     18  C   LIG    1        5.628   7.237  -6.312  0.00  0.00    +0.020 A 
ATOM     19  C   LIG    1        5.906   7.476  -7.658  0.00  0.00    +0.052 A 
ATOM     20  C   LIG    1        5.105   6.912  -8.652  0.00  0.00    +0.020 A 
ATOM     21  C   LIG    1        4.027   6.105  -8.295  0.00  0.00    +0.024 A 
BRANCH  19  22
ATOM     22  C   LIG    1        7.031   8.322  -8.027  0.00  0.00    +0.099 C 
ATOM     23  N   LIG    1        7.926   8.995  -8.320  0.00  0.00    -0.191 NA
ENDBRANCH  19  22
ENDBRANCH  14  16
ENDBRANCH   7  14
ENDBRANCH   1   4
BRANCH   2  24
ATOM     24  C   LIG    1       -0.502   1.045  -0.132  0.00  0.00    +0.090 C 
BRANCH  24  25
ATOM     25  C   LIG    1        0.317  -0.202   0.272  0.00  0.00    +0.031 C 
BRANCH  25  26
ATOM     26  C   LIG    1        1.745   0.072   0.802  0.00  0.00    +0.105 C 
BRANCH  26  27
ATOM     27  N   LIG    1        1.776   0.928   1.986  0.00  0.00    -0.314 N 
ATOM     28  H   LIG    1        2.000   1.901   1.835  0.00  0.00    +0.149 HD
ATOM     29  C   LIG    1        1.490   0.508   3.231  0.00  0.00    +0.233 C 
ATOM     30  O   LIG    1        1.211  -0.661   3.500  0.00  0.00    -0.274 OA
BRANCH  29  31
ATOM     31  C   LIG    1        1.520   1.582   4.350  0.00  0.00    +0.159 C 
ATOM     32  C   LIG    1        0.879   1.087   5.670  0.00  0.00    +0.038 C 
BRANCH  31  33
ATOM     33  N   LIG    1        0.910   2.878   3.934  0.00  0.00    -0.290 N 
ATOM     34  C   LIG    1        1.576   4.070   3.892  0.00  0.00    +0.239 C 
ATOM     35  O   LIG    1        0.988   5.153   3.806  0.00  0.00    -0.271 OA
ATOM     36  C   LIG    1       -0.554   2.869   3.754  0.00  0.00    +0.133 C 
BRANCH  34  37
ATOM     37  C   LIG    1        3.025   4.030   3.893  0.00  0.00    +0.061 C 
ATOM     38  C   LIG    1        3.775   5.028   4.403  0.00  0.00    -0.040 C 
BRANCH  38  39
ATOM     39  C   LIG    1        5.291   5.040   4.412  0.00  0.00    -0.052 C 
BRANCH  39  40
ATOM     40  N   LIG    1        5.901   6.193   3.587  0.00  0.00    +0.378 N 
ATOM     41  H   LIG    1        5.514   7.053   3.952  0.00  0.00    -0.082 HD
ATOM     42  C   LIG    1        7.428   6.276   3.772  0.00  0.00    -0.096 C 
ATOM     43  C   LIG    1        5.529   6.125   2.092  0.00  0.00    -0.096 C 
ENDBRANCH  39  40
ENDBRANCH  38  39
ENDBRANCH  34  37
ENDBRANCH  31  33
ENDBRANCH  29  31
ENDBRANCH  26  27
ENDBRANCH  25  26
ENDBRANCH  24  25
ENDBRANCH   2  24
TORSDOF 16
