REMARK  Name = DB16961
REMARK                            x       y       z     vdW  Elec       q    Type
REMARK                         _______ _______ _______ _____ _____    ______ ____
ROOT
ATOM      1  CA  LEU A  1        0.075   0.113  -0.189  0.00  0.00    +0.159 C 
ENDROOT
BRANCH   1   3
ATOM      2  C   LEU A  1       -1.478  -0.475  -2.036  0.00  0.00    +0.234 C 
ATOM      3  N   LEU A  1       -0.354  -0.686  -1.335  0.00  0.00    -0.302 N 
ATOM      4  H   LEU A  1        0.258  -1.448  -1.590  0.00  0.00    +0.150 HD
ATOM      5  O   LEU A  1       -2.281   0.431  -1.809  0.00  0.00    -0.274 OA
BRANCH   2   6
ATOM      6  CA  LEU A  1       -1.717  -1.438  -3.211  0.00  0.00    +0.159 C 
BRANCH   6   7
ATOM      7  N   LEU A  1       -3.144  -1.701  -3.416  0.00  0.00    -0.304 N 
ATOM      8  H   LEU A  1       -3.565  -1.238  -4.208  0.00  0.00    +0.149 HD
ATOM      9  C   UNK A  0       -3.910  -2.465  -2.619  0.00  0.00    +0.211 C 
ATOM     10  O   UNK A  0       -3.482  -3.061  -1.630  0.00  0.00    -0.276 OA
ATOM     11  C   UNK A  0       -5.383  -2.580  -2.994  0.00  0.00    +0.109 C 
ENDBRANCH   6   7
BRANCH   6  12
ATOM     12  CB  LEU A  1       -1.116  -0.855  -4.511  0.00  0.00    +0.034 C 
BRANCH  12  14
ATOM     13  CD1 LEU A  1       -0.264  -3.089  -5.451  0.00  0.00    +0.007 C 
ATOM     14  CG  LEU A  1       -1.111  -1.824  -5.716  0.00  0.00    -0.015 C 
ATOM     15  CD2 LEU A  1       -0.684  -1.097  -7.009  0.00  0.00    +0.007 C 
ENDBRANCH  12  14
ENDBRANCH   6  12
ENDBRANCH   2   6
ENDBRANCH   1   3
BRANCH   1  16
ATOM     16  C   LEU A  1        1.609   0.111  -0.113  0.00  0.00    +0.234 C 
ATOM     17  N   ARG A  2        2.178   1.273   0.248  0.00  0.00    -0.304 N 
ATOM     18  H   ARG A  2        1.592   2.086   0.375  0.00  0.00    +0.149 HD
ATOM     19  O   LEU A  1        2.235  -0.920  -0.362  0.00  0.00    -0.274 OA
BRANCH  17  20
ATOM     20  CA  ARG A  2        3.622   1.506   0.335  0.00  0.00    +0.136 C 
BRANCH  20  21
ATOM     21  C   ARG A  2        3.742   2.565   1.414  0.00  0.00    +0.245 C 
ATOM     22  O   ARG A  2        4.709   3.320   1.512  0.00  0.00    -0.299 OA
ENDBRANCH  20  21
BRANCH  20  23
ATOM     23  CB  ARG A  2        4.181   1.961  -1.042  0.00  0.00    +0.031 C 
BRANCH  23  24
ATOM     24  CG  ARG A  2        5.710   1.799  -1.178  0.00  0.00    +0.017 C 
BRANCH  24  25
ATOM     25  CD  ARG A  2        6.266   2.191  -2.562  0.00  0.00    +0.084 C 
BRANCH  25  26
ATOM     26  NE  ARG A  2        5.903   1.234  -3.624  0.00  0.00    -0.283 NA
ATOM     27  HE  ARG A  2        5.031   1.424  -4.098  0.00  0.00    +0.125 HD
BRANCH  26  28
ATOM     28  CZ  ARG A  2        6.576   0.123  -3.985  0.00  0.00    +0.167 C 
BRANCH  28  29
ATOM     29  NH2 ARG A  2        6.078  -0.641  -4.968  0.00  0.00    -0.297 NA
ATOM     30 HH21 ARG A  2        5.216  -0.382  -5.426  0.00  0.00    +0.121 HD
ATOM     31 HH22 ARG A  2        6.564  -1.479  -5.255  0.00  0.00    +0.121 HD
ENDBRANCH  28  29
BRANCH  28  32
ATOM     32  NH1 ARG A  2        7.725  -0.249  -3.397  0.00  0.00    -0.297 NA
ATOM     33 HH11 ARG A  2        8.116   0.312  -2.652  0.00  0.00    +0.121 HD
ATOM     34 HH12 ARG A  2        8.203  -1.088  -3.695  0.00  0.00    +0.121 HD
ENDBRANCH  28  32
ENDBRANCH  26  28
ENDBRANCH  25  26
ENDBRANCH  24  25
ENDBRANCH  23  24
ENDBRANCH  20  23
ENDBRANCH  17  20
ENDBRANCH   1  16
BRANCH   1  35
ATOM     35  CB  LEU A  1       -0.599  -0.435   1.096  0.00  0.00    +0.034 C 
BRANCH  35  36
ATOM     36  CG  LEU A  1       -0.273   0.314   2.412  0.00  0.00    -0.015 C 
ATOM     37  CD2 LEU A  1       -0.672   1.805   2.358  0.00  0.00    +0.007 C 
ATOM     38  CD1 LEU A  1       -0.892  -0.414   3.625  0.00  0.00    +0.007 C 
ENDBRANCH  35  36
ENDBRANCH   1  35
TORSDOF 17
