REMARK  Name = DB16008
REMARK                            x       y       z     vdW  Elec       q    Type
REMARK                         _______ _______ _______ _____ _____    ______ ____
ROOT
ATOM      1  N   LIG    1        1.811  -0.052  -0.441  0.00  0.00    +0.382 N 
ATOM      2  H   LIG    1        1.757   0.346   0.486  0.00  0.00    -0.082 HD
ENDROOT
BRANCH   1   3
ATOM      3  C   LIG    1        0.406   0.097  -1.077  0.00  0.00    -0.060 C 
BRANCH   3   4
ATOM      4  C   LIG    1       -0.143   1.531  -0.907  0.00  0.00    +0.084 C 
BRANCH   4   5
ATOM      5  N   LIG    1       -1.558   1.570  -0.564  0.00  0.00    -0.332 N 
ATOM      6  H   LIG    1       -1.729   1.838   0.396  0.00  0.00    +0.147 HD
BRANCH   5  13
ATOM      7  C   LIG    1       -6.096   0.867  -3.651  0.00  0.00    +0.157 C 
ATOM      8  N   LIG    1       -4.859   1.110  -2.880  0.00  0.00    -0.264 N 
ATOM      9  C   LIG    1       -5.025   1.551  -1.575  0.00  0.00    +0.333 A 
ATOM     10  O   LIG    1       -6.083   2.057  -1.180  0.00  0.00    -0.246 OA
ATOM     11  N   LIG    1       -3.877   1.514  -0.802  0.00  0.00    -0.285 N 
ATOM     12  C   LIG    1       -4.066   1.745   0.645  0.00  0.00    +0.155 C 
ATOM     13  C   LIG    1       -2.637   1.371  -1.406  0.00  0.00    +0.107 A 
ATOM     14  C   LIG    1       -2.511   1.074  -2.717  0.00  0.00    +0.112 A 
ATOM     15  C   LIG    1       -3.679   0.830  -3.533  0.00  0.00    +0.258 A 
ATOM     16  O   LIG    1       -3.571   0.373  -4.674  0.00  0.00    -0.267 OA
ENDBRANCH   5  13
ENDBRANCH   4   5
ENDBRANCH   3   4
ENDBRANCH   1   3
BRANCH   1  17
ATOM     17  C   LIG    1        2.224  -1.535  -0.269  0.00  0.00    -0.078 C 
BRANCH  17  18
ATOM     18  C   LIG    1        1.488  -2.181   0.920  0.00  0.00    -0.014 C 
BRANCH  18  19
ATOM     19  C   LIG    1        1.968  -3.617   1.191  0.00  0.00    +0.033 C 
BRANCH  19  20
ATOM     20  C   LIG    1        1.256  -4.261   2.371  0.00  0.00    -0.047 A 
ATOM     21  C   LIG    1        0.077  -4.980   2.169  0.00  0.00    +0.006 A 
ATOM     22  C   LIG    1       -0.576  -5.566   3.250  0.00  0.00    +0.033 A 
ATOM     23  C   LIG    1       -0.059  -5.441   4.548  0.00  0.00    +0.122 A 
ATOM     24  C   LIG    1        1.126  -4.716   4.739  0.00  0.00    +0.033 A 
ATOM     25  C   LIG    1        1.779  -4.129   3.658  0.00  0.00    +0.006 A 
BRANCH  23  26
ATOM     26  N   LIG    1       -0.754  -6.067   5.700  0.00  0.00    +0.006 N 
ATOM     27  O   LIG    1       -1.802  -6.675   5.495  0.00  0.00    -0.130 OA
BRANCH  26  28
ATOM     28  O   LIG    1       -0.259  -5.955   6.818  0.00  0.00    -0.396 OA
ATOM     29  H   LIG    1        0.542  -5.482   6.930  0.00  0.00    +0.329 HD
ENDBRANCH  26  28
ENDBRANCH  23  26
ENDBRANCH  19  20
ENDBRANCH  18  19
ENDBRANCH  17  18
ENDBRANCH   1  17
BRANCH   1  30
ATOM     30  C   LIG    1        2.879   0.774  -1.209  0.00  0.00    -0.051 C 
BRANCH  30  31
ATOM     31  C   LIG    1        4.140   1.042  -0.358  0.00  0.00    +0.137 C 
BRANCH  31  32
ATOM     32  O   LIG    1        3.821   1.633   0.887  0.00  0.00    -0.397 OA
ATOM     33  H   LIG    1        4.638   1.829   1.352  0.00  0.00    +0.209 HD
ENDBRANCH  31  32
ENDBRANCH  30  31
ENDBRANCH   1  30
TORSDOF 13
