REMARK  Name = DB16849
REMARK                            x       y       z     vdW  Elec       q    Type
REMARK                         _______ _______ _______ _____ _____    ______ ____
ROOT
ATOM      1  C   LIG    1        1.501   0.086  -0.129  0.00  0.00    +0.155 A 
ATOM      2  C   LIG    1        2.151  -1.148  -0.008  0.00  0.00    +0.168 A 
ATOM      3  F   LIG    1        1.460  -2.313  -0.048  0.00  0.00    -0.202 F 
ATOM      4  C   LIG    1        3.536  -1.159   0.164  0.00  0.00    +0.022 A 
ATOM      5  C   LIG    1        4.490  -2.302   0.333  0.00  0.00    +0.143 C 
ATOM      6  N   LIG    1        5.754  -1.606   0.504  0.00  0.00    -0.307 N 
ATOM      7  H   LIG    1        6.617  -2.106   0.662  0.00  0.00    +0.149 HD
ATOM      8  C   LIG    1        5.689  -0.265   0.457  0.00  0.00    +0.247 C 
ATOM      9  O   LIG    1        6.635   0.504   0.605  0.00  0.00    -0.270 OA
ATOM     10  C   LIG    1        4.238   0.036   0.208  0.00  0.00    +0.070 A 
ATOM     11  C   LIG    1        3.543   1.250   0.060  0.00  0.00    +0.089 A 
ATOM     12  N   LIG    1        2.190   1.262  -0.092  0.00  0.00    -0.228 NA
ENDROOT
BRANCH  11  13
ATOM     13  C   LIG    1        4.144   2.619   0.068  0.00  0.00    +0.039 A 
ATOM     14  C   LIG    1        5.378   3.043  -0.409  0.00  0.00    +0.118 A 
ATOM     15  N   LIG    1        5.447   4.391  -0.174  0.00  0.00    -0.274 N 
ATOM     16  C   LIG    1        6.524   5.303  -0.515  0.00  0.00    +0.172 C 
ATOM     17  N   LIG    1        4.335   4.869   0.392  0.00  0.00    -0.179 NA
ATOM     18  C   LIG    1        3.564   3.816   0.532  0.00  0.00    +0.144 A 
ENDBRANCH  11  13
BRANCH   1  19
ATOM     19  N   LIG    1        0.103   0.106  -0.290  0.00  0.00    -0.325 N 
ATOM     20  H   LIG    1       -0.364  -0.772  -0.113  0.00  0.00    +0.148 HD
BRANCH  19  26
ATOM     21  C   LIG    1       -0.881   1.492   1.499  0.00  0.00    +0.020 C 
ATOM     22  C   LIG    1       -1.799   0.408   2.107  0.00  0.00    +0.002 C 
ATOM     23  C   LIG    1       -3.161   0.336   1.384  0.00  0.00    -0.001 C 
ATOM     24  C   LIG    1       -3.014   0.192  -0.146  0.00  0.00    -0.014 C 
ATOM     25  C   LIG    1       -2.076   1.277  -0.735  0.00  0.00    -0.055 C 
ATOM     26  C   LIG    1       -0.685   1.323  -0.030  0.00  0.00    +0.057 C 
BRANCH  25  27
ATOM     27  N   LIG    1       -1.925   1.048  -2.252  0.00  0.00    +0.381 N 
ATOM     28  H   LIG    1       -2.828   1.072  -2.703  0.00  0.00    -0.090 HD
ATOM     29  H   LIG    1       -1.338   1.766  -2.654  0.00  0.00    -0.090 HD
ATOM     30  H   LIG    1       -1.497   0.149  -2.422  0.00  0.00    -0.090 HD
ENDBRANCH  25  27
ENDBRANCH  19  26
ENDBRANCH   1  19
TORSDOF 4
