REMARK  Name = DB16068
REMARK                            x       y       z     vdW  Elec       q    Type
REMARK                         _______ _______ _______ _____ _____    ______ ____
ROOT
ATOM      1  C   LIG    1       -5.117  -1.291  -0.398  0.00  0.00    -0.044 A 
ATOM      2  C   LIG    1       -4.402  -0.099  -0.291  0.00  0.00    +0.014 A 
ATOM      3  C   LIG    1       -2.979  -0.100  -0.203  0.00  0.00    +0.007 A 
ATOM      4  C   LIG    1       -2.180   1.084  -0.099  0.00  0.00    -0.026 A 
ATOM      5  C   LIG    1       -2.887   2.443  -0.141  0.00  0.00    +0.045 C 
ATOM      6  C   LIG    1       -0.780   0.968   0.021  0.00  0.00    +0.083 A 
ATOM      7  C   LIG    1       -0.204  -0.319  -0.010  0.00  0.00    +0.135 A 
ATOM      8  N   LIG    1       -0.954  -1.445  -0.129  0.00  0.00    -0.228 NA
ATOM      9  C   LIG    1       -2.306  -1.358  -0.220  0.00  0.00    +0.108 A 
ATOM     10  C   LIG    1       -3.054  -2.559  -0.331  0.00  0.00    +0.150 A 
ATOM     11  F   LIG    1       -2.434  -3.763  -0.351  0.00  0.00    -0.203 F 
ATOM     12  C   LIG    1       -4.441  -2.509  -0.419  0.00  0.00    +0.044 A 
ENDROOT
BRANCH   6  13
ATOM     13  C   LIG    1        0.099   2.177   0.158  0.00  0.00    +0.262 A 
ATOM     14  O   LIG    1        1.153   2.311  -0.686  0.00  0.00    -0.333 OA
ATOM     15  N   LIG    1        1.794   3.479  -0.281  0.00  0.00    -0.061 NA
ATOM     16  C   LIG    1        1.052   3.889   0.724  0.00  0.00    +0.169 A 
ATOM     17  C   LIG    1        1.390   5.143   1.498  0.00  0.00    +0.091 C 
ATOM     18  N   LIG    1        0.020   3.134   1.045  0.00  0.00    -0.192 NA
ENDBRANCH   6  13
BRANCH   7  19
ATOM     19  N   LIG    1        1.165  -0.524   0.176  0.00  0.00    -0.315 N 
ATOM     20  C   LIG    1        1.707  -0.253   1.521  0.00  0.00    +0.105 C 
ATOM     21  C   LIG    1        3.228   0.002   1.501  0.00  0.00    +0.003 C 
ATOM     22  C   LIG    1        4.007  -1.179   0.886  0.00  0.00    -0.069 C 
ATOM     23  C   LIG    1        3.373  -1.522  -0.475  0.00  0.00    +0.003 C 
ATOM     24  C   LIG    1        1.844  -1.709  -0.384  0.00  0.00    +0.105 C 
BRANCH  22  25
ATOM     25  N   LIG    1        5.470  -0.771   0.623  0.00  0.00    +0.383 N 
ATOM     26  H   LIG    1        5.484   0.057   0.043  0.00  0.00    -0.085 HD
ATOM     27  H   LIG    1        5.899  -1.482   0.047  0.00  0.00    -0.085 HD
BRANCH  25  28
ATOM     28  C   LIG    1        6.353  -0.512   1.859  0.00  0.00    -0.067 C 
ATOM     29  C   LIG    1        6.586  -1.832   2.634  0.00  0.00    +0.012 C 
ATOM     30  C   LIG    1        7.703  -1.684   3.686  0.00  0.00    +0.158 C 
ATOM     31  O   LIG    1        8.896  -1.200   3.072  0.00  0.00    -0.380 OA
ATOM     32  C   LIG    1        8.757   0.089   2.477  0.00  0.00    +0.158 C 
ATOM     33  C   LIG    1        7.706   0.035   1.351  0.00  0.00    +0.012 C 
ENDBRANCH  25  28
ENDBRANCH  22  25
ENDBRANCH   7  19
BRANCH   1  35
ATOM     34  C   LIG    1       -7.147  -1.482  -1.925  0.00  0.00    +0.009 C 
ATOM     35  C   LIG    1       -6.636  -1.267  -0.493  0.00  0.00    +0.032 C 
ENDBRANCH   1  35
TORSDOF 5
