REMARK  Name = DB16136
REMARK                            x       y       z     vdW  Elec       q    Type
REMARK                         _______ _______ _______ _____ _____    ______ ____
ROOT
ATOM      1  C   LIG    1       -0.017  -0.031   0.096  0.00  0.00    -0.075 C 
ATOM      2  C   LIG    1       -0.343  -0.474   1.533  0.00  0.00    -0.014 C 
ENDROOT
BRANCH   1   4
ATOM      3  C   LIG    1       -1.488   1.343  -1.553  0.00  0.00    -0.100 C 
ATOM      4  N   LIG    1       -0.798   1.271  -0.181  0.00  0.00    +0.379 N 
ATOM      5  H   LIG    1       -1.517   1.356   0.524  0.00  0.00    -0.086 HD
ATOM      6  H   LIG    1       -0.174   2.057  -0.068  0.00  0.00    -0.086 HD
ENDBRANCH   1   4
BRANCH   1   7
ATOM      7  C   LIG    1        1.501   0.189  -0.118  0.00  0.00    -0.012 C 
BRANCH   7   8
ATOM      8  C   LIG    1        1.928   0.562  -1.551  0.00  0.00    +0.025 C 
BRANCH   8   9
ATOM      9  C   LIG    1        3.438   0.605  -1.728  0.00  0.00    -0.028 C 
ATOM     10  C   LIG    1        4.235   1.694  -1.779  0.00  0.00    -0.080 C 
ATOM     11  C   LIG    1        3.754   3.131  -1.621  0.00  0.00    +0.038 C 
ATOM     12  C   LIG    1        5.734   1.563  -1.990  0.00  0.00    +0.038 C 
ENDBRANCH   8   9
ENDBRANCH   7   8
ENDBRANCH   1   7
TORSDOF 4
