REMARK  Name = DB16067
REMARK                            x       y       z     vdW  Elec       q    Type
REMARK                         _______ _______ _______ _____ _____    ______ ____
ROOT
ATOM      1  C   LIG    1       -0.009   0.053   0.071  0.00  0.00    +0.062 C 
ENDROOT
BRANCH   1   8
ATOM      2  C   LIG    1       -0.719   3.707   1.072  0.00  0.00    +0.185 A 
ATOM      3  C   LIG    1       -1.514   4.178  -0.065  0.00  0.00    +0.306 A 
ATOM      4  O   LIG    1       -1.985   5.307  -0.204  0.00  0.00    -0.262 OA
ATOM      5  N   LIG    1       -1.684   3.190  -0.994  0.00  0.00    -0.240 N 
ATOM      6  H   LIG    1       -2.219   3.412  -1.821  0.00  0.00    +0.192 HD
ATOM      7  N   LIG    1       -1.205   1.883  -0.949  0.00  0.00    -0.176 NA
ATOM      8  C   LIG    1       -0.507   1.493   0.065  0.00  0.00    +0.065 A 
ATOM      9  C   LIG    1       -0.246   2.437   1.128  0.00  0.00    +0.076 A 
BRANCH   2  10
ATOM     10  O   LIG    1       -0.482   4.611   2.062  0.00  0.00    -0.502 OA
ATOM     11  H   LIG    1        0.049   4.203   2.749  0.00  0.00    +0.292 HD
ENDBRANCH   2  10
ENDBRANCH   1   8
BRANCH   1  12
ATOM     12  C   LIG    1        1.530  -0.020  -0.025  0.00  0.00    +0.041 C 
BRANCH  12  13
ATOM     13  C   LIG    1        2.040  -1.454  -0.025  0.00  0.00    -0.047 A 
ATOM     14  C   LIG    1        2.262  -2.117  -1.234  0.00  0.00    +0.004 A 
ATOM     15  C   LIG    1        2.717  -3.432  -1.232  0.00  0.00    +0.012 A 
ATOM     16  C   LIG    1        2.951  -4.095  -0.022  0.00  0.00    +0.055 A 
ATOM     17  C   LIG    1        2.730  -3.425   1.186  0.00  0.00    +0.012 A 
ATOM     18  C   LIG    1        2.275  -2.109   1.185  0.00  0.00    +0.004 A 
BRANCH  16  19
ATOM     19  C   LIG    1        3.443  -5.542  -0.019  0.00  0.00    +0.417 C 
ATOM     20  F   LIG    1        3.015  -6.201   1.060  0.00  0.00    -0.166 F 
ATOM     21  F   LIG    1        4.776  -5.546  -0.015  0.00  0.00    -0.166 F 
ATOM     22  F   LIG    1        3.021  -6.204  -1.098  0.00  0.00    -0.166 F 
ENDBRANCH  16  19
ENDBRANCH  12  13
ENDBRANCH   1  12
TORSDOF 5
