REMARK  Name = DB16852
REMARK                            x       y       z     vdW  Elec       q    Type
REMARK                         _______ _______ _______ _____ _____    ______ ____
ROOT
ATOM      1  C   LIG    1        1.404  -0.006   2.486  0.00  0.00    +0.011 A 
ATOM      2  C   LIG    1        0.659  -1.138   2.832  0.00  0.00    +0.048 A 
ATOM      3  C   LIG    1        0.248  -1.354   4.141  0.00  0.00    +0.126 A 
ATOM      4  F   LIG    1       -0.457  -2.465   4.454  0.00  0.00    -0.205 F 
ATOM      5  C   LIG    1        0.571  -0.433   5.130  0.00  0.00    +0.062 A 
ATOM      6  C   LIG    1        1.295   0.728   4.817  0.00  0.00    +0.040 A 
ATOM      7  C   LIG    1        1.718   0.944   3.486  0.00  0.00    -0.020 A 
ATOM      8  C   LIG    1        2.473   2.226   3.112  0.00  0.00    +0.046 C 
ENDROOT
BRANCH   1  14
ATOM      9  C   LIG    1        0.890   0.219   0.003  0.00  0.00    +0.186 A 
ATOM     10  C   LIG    1        1.415   0.314  -1.295  0.00  0.00    +0.162 A 
ATOM     11  N   LIG    1        2.750   0.351  -1.537  0.00  0.00    -0.217 NA
ATOM     12  C   LIG    1        3.561   0.287  -0.452  0.00  0.00    +0.224 A 
ATOM     13  N   LIG    1        3.160   0.185   0.840  0.00  0.00    -0.232 NA
ATOM     14  C   LIG    1        1.816   0.151   1.062  0.00  0.00    +0.118 A 
BRANCH  10  15
ATOM     15  N   LIG    1        0.573   0.389  -2.405  0.00  0.00    -0.340 N 
ATOM     16  H   LIG    1        0.975   0.477  -3.327  0.00  0.00    +0.144 HD
ATOM     17  H   LIG    1       -0.427   0.389  -2.268  0.00  0.00    +0.144 HD
ENDBRANCH  10  15
BRANCH   9  18
ATOM     18  O   LIG    1       -0.471   0.180   0.207  0.00  0.00    -0.485 OA
BRANCH  18  19
ATOM     19  C   LIG    1       -1.034   1.351   0.796  0.00  0.00    +0.248 C 
BRANCH  19  20
ATOM     20  C   LIG    1       -2.489   1.517   0.318  0.00  0.00    +0.148 C 
BRANCH  20  21
ATOM     21  N   LIG    1       -2.629   1.629  -1.148  0.00  0.00    -0.298 N 
ATOM     22  C   LIG    1       -3.088   0.386  -1.784  0.00  0.00    +0.132 C 
ATOM     23  C   LIG    1       -2.299   2.721  -1.898  0.00  0.00    +0.239 C 
ATOM     24  O   LIG    1       -2.342   2.699  -3.132  0.00  0.00    -0.271 OA
BRANCH  23  25
ATOM     25  C   LIG    1       -1.908   3.931  -1.193  0.00  0.00    +0.060 C 
ATOM     26  C   LIG    1       -1.401   5.009  -1.821  0.00  0.00    +0.013 C 
ENDBRANCH  23  25
ENDBRANCH  20  21
ENDBRANCH  19  20
ENDBRANCH  18  19
ENDBRANCH   9  18
ENDBRANCH   1  14
BRANCH   6  27
ATOM     27  N   LIG    1        1.649   1.676   5.802  0.00  0.00    -0.281 N 
ATOM     28  H   LIG    1        2.443   2.252   5.563  0.00  0.00    +0.155 HD
ATOM     29  C   LIG    1        1.033   1.966   6.971  0.00  0.00    +0.251 C 
ATOM     30  O   LIG    1       -0.014   1.435   7.348  0.00  0.00    -0.270 OA
BRANCH  29  31
ATOM     31  C   LIG    1        1.676   3.049   7.817  0.00  0.00    +0.072 A 
ATOM     32  C   LIG    1        0.882   3.750   8.739  0.00  0.00    +0.016 A 
ATOM     33  C   LIG    1        1.422   4.752   9.543  0.00  0.00    +0.005 A 
ATOM     34  C   LIG    1        2.774   5.077   9.443  0.00  0.00    -0.042 A 
ATOM     35  C   LIG    1        3.582   4.385   8.540  0.00  0.00    +0.043 A 
ATOM     36  C   LIG    1        3.047   3.380   7.734  0.00  0.00    +0.136 A 
ATOM     37  F   LIG    1        3.889   2.733   6.892  0.00  0.00    -0.205 F 
BRANCH  34  38
ATOM     38  C   LIG    1        3.365   6.163  10.325  0.00  0.00    +0.019 C 
ATOM     39  C   LIG    1        4.160   7.317   9.760  0.00  0.00    +0.009 C 
ATOM     40  C   LIG    1        2.796   7.563  10.368  0.00  0.00    +0.009 C 
ENDBRANCH  34  38
ENDBRANCH  29  31
ENDBRANCH   6  27
TORSDOF 10
