REMARK  Name = DB16013
REMARK                            x       y       z     vdW  Elec       q    Type
REMARK                         _______ _______ _______ _____ _____    ______ ____
ROOT
ATOM      1  C   LIG    1       -2.037   0.752   0.216  0.00  0.00    +0.159 C 
ENDROOT
BRANCH   1   3
ATOM      2  C   LIG    1       -3.509   1.126   2.183  0.00  0.00    +0.234 C 
ATOM      3  N   LIG    1       -2.788   1.587   1.149  0.00  0.00    -0.302 N 
ATOM      4  H   LIG    1       -2.695   2.585   1.018  0.00  0.00    +0.150 HD
ATOM      5  O   LIG    1       -3.671  -0.067   2.447  0.00  0.00    -0.274 OA
BRANCH   2   6
ATOM      6  C   LIG    1       -4.120   2.198   3.103  0.00  0.00    +0.163 C 
BRANCH   6   8
ATOM      7  C   LIG    1       -6.573   1.989   2.769  0.00  0.00    +0.234 C 
ATOM      8  N   LIG    1       -5.469   1.814   3.511  0.00  0.00    -0.302 N 
ATOM      9  H   LIG    1       -5.533   1.298   4.376  0.00  0.00    +0.150 HD
ATOM     10  O   LIG    1       -6.613   2.603   1.702  0.00  0.00    -0.274 OA
BRANCH   7  11
ATOM     11  C   LIG    1       -7.840   1.294   3.298  0.00  0.00    +0.159 C 
BRANCH  11  13
ATOM     12  C   LIG    1       -9.089   3.245   4.216  0.00  0.00    +0.234 C 
ATOM     13  N   LIG    1       -8.991   2.191   3.388  0.00  0.00    -0.302 N 
ATOM     14  H   LIG    1       -9.783   1.948   2.810  0.00  0.00    +0.150 HD
ATOM     15  O   LIG    1       -8.193   3.623   4.972  0.00  0.00    -0.274 OA
BRANCH  12  16
ATOM     16  C   LIG    1      -10.457   3.944   4.237  0.00  0.00    +0.163 C 
BRANCH  16  18
ATOM     17  C   LIG    1      -12.073   2.292   5.143  0.00  0.00    +0.234 C 
ATOM     18  N   LIG    1      -11.261   3.348   5.301  0.00  0.00    -0.302 N 
ATOM     19  H   LIG    1      -11.150   3.756   6.218  0.00  0.00    +0.150 HD
ATOM     20  O   LIG    1      -12.291   1.730   4.069  0.00  0.00    -0.274 OA
BRANCH  17  21
ATOM     21  C   LIG    1      -12.753   1.776   6.422  0.00  0.00    +0.163 C 
BRANCH  21  23
ATOM     22  C   LIG    1      -14.630   3.359   6.742  0.00  0.00    +0.234 C 
ATOM     23  N   LIG    1      -14.169   2.140   6.417  0.00  0.00    -0.302 N 
ATOM     24  H   LIG    1      -14.806   1.441   6.063  0.00  0.00    +0.150 HD
ATOM     25  O   LIG    1      -13.929   4.271   7.184  0.00  0.00    -0.274 OA
BRANCH  22  26
ATOM     26  C   LIG    1      -16.122   3.611   6.471  0.00  0.00    +0.159 C 
BRANCH  26  29
ATOM     27  C   LIG    1      -17.594   5.166   9.666  0.00  0.00    +0.109 C 
ATOM     28  C   LIG    1      -16.993   4.102   8.754  0.00  0.00    +0.211 C 
ATOM     29  N   LIG    1      -16.725   4.474   7.491  0.00  0.00    -0.304 N 
ATOM     30  H   LIG    1      -16.922   5.422   7.204  0.00  0.00    +0.149 HD
ATOM     31  O   LIG    1      -16.783   2.970   9.189  0.00  0.00    -0.276 OA
ENDBRANCH  26  29
BRANCH  26  32
ATOM     32  C   LIG    1      -16.286   4.257   5.079  0.00  0.00    +0.033 C 
BRANCH  32  33
ATOM     33  C   LIG    1      -17.732   4.614   4.695  0.00  0.00    +0.017 C 
BRANCH  33  34
ATOM     34  C   LIG    1      -17.828   5.157   3.259  0.00  0.00    +0.084 C 
BRANCH  34  35
ATOM     35  N   LIG    1      -19.160   5.712   2.962  0.00  0.00    -0.283 NA
ATOM     36  H   LIG    1      -19.847   5.041   2.647  0.00  0.00    +0.125 HD
BRANCH  35  37
ATOM     37  C   LIG    1      -19.560   6.991   3.109  0.00  0.00    +0.167 C 
BRANCH  37  38
ATOM     38  N   LIG    1      -18.740   7.957   3.554  0.00  0.00    -0.297 NA
ATOM     39  H   LIG    1      -17.780   7.739   3.784  0.00  0.00    +0.121 HD
ATOM     40  H   LIG    1      -19.071   8.906   3.650  0.00  0.00    +0.121 HD
ENDBRANCH  37  38
BRANCH  37  41
ATOM     41  N   LIG    1      -20.824   7.310   2.801  0.00  0.00    -0.297 NA
ATOM     42  H   LIG    1      -21.461   6.602   2.464  0.00  0.00    +0.121 HD
ATOM     43  H   LIG    1      -21.147   8.262   2.901  0.00  0.00    +0.121 HD
ENDBRANCH  37  41
ENDBRANCH  35  37
ENDBRANCH  34  35
ENDBRANCH  33  34
ENDBRANCH  32  33
ENDBRANCH  26  32
ENDBRANCH  22  26
ENDBRANCH  21  23
BRANCH  21  44
ATOM     44  C   LIG    1      -12.606   0.248   6.603  0.00  0.00    +0.067 C 
BRANCH  44  45
ATOM     45  C   LIG    1      -11.186  -0.287   6.464  0.00  0.00    -0.045 A 
ATOM     46  C   LIG    1      -10.165   0.182   7.317  0.00  0.00    +0.007 A 
ATOM     47  C   LIG    1       -8.843  -0.278   7.162  0.00  0.00    +0.045 A 
ATOM     48  C   LIG    1       -8.537  -1.219   6.160  0.00  0.00    +0.117 A 
ATOM     49  C   LIG    1       -9.557  -1.703   5.317  0.00  0.00    +0.045 A 
ATOM     50  C   LIG    1      -10.877  -1.235   5.465  0.00  0.00    +0.007 A 
BRANCH  48  51
ATOM     51  O   LIG    1       -7.255  -1.658   6.002  0.00  0.00    -0.507 OA
ATOM     52  H   LIG    1       -6.649  -1.275   6.640  0.00  0.00    +0.292 HD
ENDBRANCH  48  51
ENDBRANCH  44  45
ENDBRANCH  21  44
ENDBRANCH  17  21
ENDBRANCH  16  18
BRANCH  16  53
ATOM     53  C   LIG    1      -10.351   5.466   4.474  0.00  0.00    +0.067 C 
BRANCH  53  54
ATOM     54  C   LIG    1      -11.691   6.183   4.517  0.00  0.00    -0.045 A 
ATOM     55  C   LIG    1      -12.179   6.705   5.734  0.00  0.00    +0.007 A 
ATOM     56  C   LIG    1      -13.432   7.346   5.780  0.00  0.00    +0.045 A 
ATOM     57  C   LIG    1      -14.204   7.469   4.609  0.00  0.00    +0.117 A 
ATOM     58  C   LIG    1      -13.721   6.952   3.390  0.00  0.00    +0.045 A 
ATOM     59  C   LIG    1      -12.466   6.313   3.344  0.00  0.00    +0.007 A 
BRANCH  57  60
ATOM     60  O   LIG    1      -15.425   8.078   4.658  0.00  0.00    -0.507 OA
ATOM     61  H   LIG    1      -15.629   8.422   5.531  0.00  0.00    +0.292 HD
ENDBRANCH  57  60
ENDBRANCH  53  54
ENDBRANCH  16  53
ENDBRANCH  12  16
ENDBRANCH  11  13
BRANCH  11  62
ATOM     62  C   LIG    1       -8.230   0.070   2.439  0.00  0.00    +0.033 C 
BRANCH  62  63
ATOM     63  C   LIG    1       -7.111  -0.976   2.282  0.00  0.00    +0.017 C 
BRANCH  63  64
ATOM     64  C   LIG    1       -7.578  -2.260   1.581  0.00  0.00    +0.084 C 
BRANCH  64  65
ATOM     65  N   LIG    1       -6.527  -3.293   1.580  0.00  0.00    -0.283 NA
ATOM     66  H   LIG    1       -5.906  -3.273   0.783  0.00  0.00    +0.125 HD
BRANCH  65  67
ATOM     67  C   LIG    1       -6.268  -4.196   2.546  0.00  0.00    +0.167 C 
BRANCH  67  68
ATOM     68  N   LIG    1       -5.242  -5.040   2.378  0.00  0.00    -0.297 NA
ATOM     69  H   LIG    1       -4.676  -4.993   1.543  0.00  0.00    +0.121 HD
ATOM     70  H   LIG    1       -5.026  -5.725   3.089  0.00  0.00    +0.121 HD
ENDBRANCH  67  68
BRANCH  67  71
ATOM     71  N   LIG    1       -6.998  -4.280   3.670  0.00  0.00    -0.297 NA
ATOM     72  H   LIG    1       -7.768  -3.645   3.821  0.00  0.00    +0.121 HD
ATOM     73  H   LIG    1       -6.774  -4.967   4.376  0.00  0.00    +0.121 HD
ENDBRANCH  67  71
ENDBRANCH  65  67
ENDBRANCH  64  65
ENDBRANCH  63  64
ENDBRANCH  62  63
ENDBRANCH  11  62
ENDBRANCH   7  11
ENDBRANCH   6   8
BRANCH   6  74
ATOM     74  C   LIG    1       -3.266   2.422   4.369  0.00  0.00    +0.069 C 
BRANCH  74  75
ATOM     75  C   LIG    1       -1.810   2.726   4.157  0.00  0.00    -0.020 A 
ATOM     76  C   LIG    1       -1.303   3.930   3.808  0.00  0.00    +0.087 A 
ATOM     77  N   LIG    1        0.065   3.833   3.663  0.00  0.00    -0.360 N 
ATOM     78  H   LIG    1        0.643   4.622   3.409  0.00  0.00    +0.165 HD
ATOM     79  C   LIG    1        0.514   2.550   3.898  0.00  0.00    +0.047 A 
ATOM     80  C   LIG    1        1.788   1.954   3.876  0.00  0.00    +0.026 A 
ATOM     81  C   LIG    1        1.909   0.582   4.159  0.00  0.00    +0.002 A 
ATOM     82  C   LIG    1        0.758  -0.179   4.448  0.00  0.00    +0.001 A 
ATOM     83  C   LIG    1       -0.513   0.430   4.467  0.00  0.00    +0.010 A 
ATOM     84  C   LIG    1       -0.670   1.812   4.201  0.00  0.00    +0.003 A 
ENDBRANCH  74  75
ENDBRANCH   6  74
ENDBRANCH   2   6
ENDBRANCH   1   3
BRANCH   1  85
ATOM     85  C   LIG    1       -0.533   0.989   0.417  0.00  0.00    +0.234 C 
ATOM     86  N   LIG    1        0.228  -0.117   0.458  0.00  0.00    -0.302 N 
ATOM     87  H   LIG    1       -0.212  -1.021   0.372  0.00  0.00    +0.150 HD
ATOM     88  O   LIG    1       -0.099   2.139   0.502  0.00  0.00    -0.274 OA
BRANCH  86  89
ATOM     89  C   LIG    1        1.685  -0.127   0.578  0.00  0.00    +0.159 C 
BRANCH  89  90
ATOM     90  C   LIG    1        2.369   0.237  -0.752  0.00  0.00    +0.234 C 
ATOM     91  N   LIG    1        3.523   0.918  -0.643  0.00  0.00    -0.302 N 
ATOM     92  H   LIG    1        3.855   1.165   0.278  0.00  0.00    +0.150 HD
ATOM     93  O   LIG    1        1.862  -0.116  -1.819  0.00  0.00    -0.274 OA
BRANCH  91  94
ATOM     94  C   LIG    1        4.393   1.319  -1.751  0.00  0.00    +0.159 C 
BRANCH  94  95
ATOM     95  C   LIG    1        4.915   0.111  -2.550  0.00  0.00    +0.234 C 
ATOM     96  N   LIG    1        4.550   0.072  -3.841  0.00  0.00    -0.302 N 
ATOM     97  H   LIG    1        3.955   0.801  -4.207  0.00  0.00    +0.150 HD
ATOM     98  O   LIG    1        5.628  -0.727  -1.995  0.00  0.00    -0.274 OA
BRANCH  96  99
ATOM     99  C   LIG    1        4.989  -0.933  -4.808  0.00  0.00    +0.159 C 
BRANCH  99 100
ATOM    100  C   LIG    1        6.383  -0.590  -5.358  0.00  0.00    +0.234 C 
ATOM    101  N   LIG    1        7.157  -1.636  -5.686  0.00  0.00    -0.302 N 
ATOM    102  H   LIG    1        6.806  -2.576  -5.564  0.00  0.00    +0.150 HD
ATOM    103  O   LIG    1        6.717   0.589  -5.494  0.00  0.00    -0.274 OA
BRANCH 101 104
ATOM    104  C   LIG    1        8.510  -1.527  -6.226  0.00  0.00    +0.159 C 
BRANCH 104 105
ATOM    105  C   LIG    1        8.850  -2.801  -7.008  0.00  0.00    +0.234 C 
ATOM    106  N   LIG    1        9.230  -2.620  -8.283  0.00  0.00    -0.302 N 
ATOM    107  H   LIG    1        9.242  -1.686  -8.669  0.00  0.00    +0.150 HD
ATOM    108  O   LIG    1        8.803  -3.893  -6.439  0.00  0.00    -0.274 OA
BRANCH 106 109
ATOM    109  C   LIG    1        9.742  -3.672  -9.162  0.00  0.00    +0.159 C 
BRANCH 109 110
ATOM    110  C   LIG    1       11.194  -4.021  -8.795  0.00  0.00    +0.234 C 
ATOM    111  N   LIG    1       11.506  -5.326  -8.807  0.00  0.00    -0.302 N 
ATOM    112  H   LIG    1       10.804  -6.003  -9.069  0.00  0.00    +0.150 HD
ATOM    113  O   LIG    1       11.983  -3.118  -8.510  0.00  0.00    -0.274 OA
BRANCH 111 114
ATOM    114  C   LIG    1       12.818  -5.876  -8.452  0.00  0.00    +0.159 C 
BRANCH 114 115
ATOM    115  C   LIG    1       13.212  -7.001  -9.431  0.00  0.00    +0.231 C 
ATOM    116  O   LIG    1       12.361  -7.762  -9.890  0.00  0.00    -0.274 OA
ATOM    117  N   LIG    1       14.512  -7.119  -9.716  0.00  0.00    -0.328 N 
ATOM    118  H   LIG    1       14.827  -7.846 -10.342  0.00  0.00    +0.145 HD
ATOM    119  H   LIG    1       15.186  -6.484  -9.314  0.00  0.00    +0.145 HD
ENDBRANCH 114 115
BRANCH 114 120
ATOM    120  C   LIG    1       12.788  -6.403  -6.998  0.00  0.00    +0.032 C 
BRANCH 120 121
ATOM    121  C   LIG    1       12.518  -5.320  -5.937  0.00  0.00    +0.000 C 
BRANCH 121 122
ATOM    122  C   LIG    1       12.618  -5.857  -4.499  0.00  0.00    -0.019 C 
BRANCH 122 123
ATOM    123  C   LIG    1       12.253  -4.821  -3.421  0.00  0.00    -0.086 C 
BRANCH 123 124
ATOM    124  N   LIG    1       10.814  -4.498  -3.416  0.00  0.00    +0.378 N 
ATOM    125  H   LIG    1       10.553  -4.113  -4.313  0.00  0.00    -0.090 HD
ATOM    126  H   LIG    1       10.281  -5.338  -3.245  0.00  0.00    -0.090 HD
ATOM    127  H   LIG    1       10.621  -3.822  -2.691  0.00  0.00    -0.090 HD
ENDBRANCH 123 124
ENDBRANCH 122 123
ENDBRANCH 121 122
ENDBRANCH 120 121
ENDBRANCH 114 120
ENDBRANCH 111 114
ENDBRANCH 109 110
BRANCH 109 128
ATOM    128  C   LIG    1        9.652  -3.207 -10.630  0.00  0.00    +0.032 C 
BRANCH 128 129
ATOM    129  C   LIG    1        8.211  -2.986 -11.120  0.00  0.00    +0.003 C 
BRANCH 129 130
ATOM    130  C   LIG    1        8.152  -2.567 -12.598  0.00  0.00    +0.015 C 
BRANCH 130 131
ATOM    131  C   LIG    1        6.722  -2.364 -13.123  0.00  0.00    +0.077 C 
BRANCH 131 132
ATOM    132  N   LIG    1        6.110  -1.196 -12.521  0.00  0.00    -0.330 NA
ATOM    133  H   LIG    1        5.176  -1.078 -12.886  0.00  0.00    +0.118 HD
ATOM    134  H   LIG    1        6.625  -0.369 -12.786  0.00  0.00    +0.118 HD
ENDBRANCH 131 132
ENDBRANCH 130 131
ENDBRANCH 129 130
ENDBRANCH 128 129
ENDBRANCH 109 128
ENDBRANCH 106 109
ENDBRANCH 104 105
BRANCH 104 135
ATOM    135  C   LIG    1        9.511  -1.238  -5.079  0.00  0.00    +0.032 C 
BRANCH 135 136
ATOM    136  C   LIG    1       10.993  -1.210  -5.502  0.00  0.00    +0.003 C 
BRANCH 136 137
ATOM    137  C   LIG    1       11.926  -0.814  -4.351  0.00  0.00    +0.015 C 
BRANCH 137 138
ATOM    138  C   LIG    1       13.405  -0.872  -4.759  0.00  0.00    +0.077 C 
BRANCH 138 139
ATOM    139  N   LIG    1       14.244  -0.484  -3.643  0.00  0.00    -0.330 NA
ATOM    140  H   LIG    1       15.215  -0.517  -3.919  0.00  0.00    +0.118 HD
ATOM    141  H   LIG    1       14.138  -1.141  -2.884  0.00  0.00    +0.118 HD
ENDBRANCH 138 139
ENDBRANCH 137 138
ENDBRANCH 136 137
ENDBRANCH 135 136
ENDBRANCH 104 135
ENDBRANCH 101 104
ENDBRANCH  99 100
BRANCH  99 142
ATOM    142  C   LIG    1        3.962  -1.012  -5.957  0.00  0.00    +0.032 C 
BRANCH 142 143
ATOM    143  C   LIG    1        2.545  -1.410  -5.497  0.00  0.00    +0.003 C 
BRANCH 143 144
ATOM    144  C   LIG    1        1.568  -1.671  -6.655  0.00  0.00    +0.015 C 
BRANCH 144 145
ATOM    145  C   LIG    1        1.284  -0.429  -7.513  0.00  0.00    +0.077 C 
BRANCH 145 146
ATOM    146  N   LIG    1        0.284  -0.738  -8.517  0.00  0.00    -0.330 NA
ATOM    147  H   LIG    1        0.630  -1.473  -9.118  0.00  0.00    +0.118 HD
ATOM    148  H   LIG    1        0.145   0.068  -9.111  0.00  0.00    +0.118 HD
ENDBRANCH 145 146
ENDBRANCH 144 145
ENDBRANCH 143 144
ENDBRANCH 142 143
ENDBRANCH  99 142
ENDBRANCH  96  99
ENDBRANCH  94  95
BRANCH  94 149
ATOM    149  C   LIG    1        5.532   2.201  -1.183  0.00  0.00    +0.032 C 
BRANCH 149 150
ATOM    150  C   LIG    1        6.663   2.593  -2.160  0.00  0.00    +0.000 C 
BRANCH 150 151
ATOM    151  C   LIG    1        6.194   3.366  -3.403  0.00  0.00    -0.019 C 
BRANCH 151 152
ATOM    152  C   LIG    1        7.371   3.762  -4.310  0.00  0.00    -0.086 C 
BRANCH 152 153
ATOM    153  N   LIG    1        6.915   4.415  -5.550  0.00  0.00    +0.378 N 
ATOM    154  H   LIG    1        6.318   3.781  -6.062  0.00  0.00    -0.090 HD
ATOM    155  H   LIG    1        6.401   5.254  -5.322  0.00  0.00    -0.090 HD
ATOM    156  H   LIG    1        7.715   4.653  -6.117  0.00  0.00    -0.090 HD
ENDBRANCH 152 153
ENDBRANCH 151 152
ENDBRANCH 150 151
ENDBRANCH 149 150
ENDBRANCH  94 149
ENDBRANCH  91  94
ENDBRANCH  89  90
BRANCH  89 157
ATOM    157  C   LIG    1        2.111  -1.516   1.101  0.00  0.00    +0.032 C 
BRANCH 157 158
ATOM    158  C   LIG    1        3.617  -1.667   1.383  0.00  0.00    +0.000 C 
BRANCH 158 159
ATOM    159  C   LIG    1        3.950  -2.979   2.106  0.00  0.00    -0.019 C 
BRANCH 159 160
ATOM    160  C   LIG    1        5.453  -3.122   2.390  0.00  0.00    -0.086 C 
BRANCH 160 161
ATOM    161  N   LIG    1        5.757  -4.371   3.111  0.00  0.00    +0.378 N 
ATOM    162  H   LIG    1        5.267  -4.379   3.994  0.00  0.00    -0.090 HD
ATOM    163  H   LIG    1        5.463  -5.162   2.557  0.00  0.00    -0.090 HD
ATOM    164  H   LIG    1        6.751  -4.429   3.279  0.00  0.00    -0.090 HD
ENDBRANCH 160 161
ENDBRANCH 159 160
ENDBRANCH 158 159
ENDBRANCH 157 158
ENDBRANCH  89 157
ENDBRANCH  86  89
ENDBRANCH   1  85
BRANCH   1 165
ATOM    165  C   LIG    1       -2.499   1.070  -1.223  0.00  0.00    +0.032 C 
BRANCH 165 166
ATOM    166  C   LIG    1       -1.766   0.272  -2.319  0.00  0.00    +0.000 C 
BRANCH 166 167
ATOM    167  C   LIG    1       -2.377   0.474  -3.712  0.00  0.00    -0.019 C 
BRANCH 167 168
ATOM    168  C   LIG    1       -1.603  -0.291  -4.799  0.00  0.00    -0.086 C 
BRANCH 168 169
ATOM    169  N   LIG    1       -2.222  -0.128  -6.126  0.00  0.00    +0.378 N 
ATOM    170  H   LIG    1       -3.162  -0.497  -6.109  0.00  0.00    -0.090 HD
ATOM    171  H   LIG    1       -2.249   0.852  -6.368  0.00  0.00    -0.090 HD
ATOM    172  H   LIG    1       -1.677  -0.628  -6.814  0.00  0.00    -0.090 HD
ENDBRANCH 168 169
ENDBRANCH 167 168
ENDBRANCH 166 167
ENDBRANCH 165 166
ENDBRANCH   1 165
TORSDOF 81
