REMARK  Name = DB16858
REMARK                            x       y       z     vdW  Elec       q    Type
REMARK                         _______ _______ _______ _____ _____    ______ ____
ROOT
ATOM      1  C   LIG    1       -2.431  -0.072   0.075  0.00  0.00    -0.021 C 
ATOM      2  C   LIG    1       -1.180  -0.922   0.291  0.00  0.00    -0.083 C 
ATOM      3  N   LIG    1       -1.591  -2.342  -0.133  0.00  0.00    +0.379 N 
ATOM      4  H   LIG    1       -1.293  -3.013   0.561  0.00  0.00    -0.086 HD
ATOM      5  H   LIG    1       -1.155  -2.599  -1.007  0.00  0.00    -0.086 HD
ATOM      6  C   LIG    1       -3.122  -2.345  -0.282  0.00  0.00    -0.083 C 
ATOM      7  C   LIG    1       -3.579  -1.033   0.353  0.00  0.00    -0.021 C 
ENDROOT
TORSDOF 0
