REMARK  Name = DB16330
REMARK                            x       y       z     vdW  Elec       q    Type
REMARK                         _______ _______ _______ _____ _____    ______ ____
ROOT
ATOM      1  C   LIG    1        1.395  -0.080  -0.014  0.00  0.00    +0.025 A 
ATOM      2  S   LIG    1        2.308  -1.315  -0.845  0.00  0.00    -0.081 S 
ATOM      3  C   LIG    1        3.798  -0.578  -0.363  0.00  0.00    +0.102 A 
ATOM      4  C   LIG    1        5.138  -1.053  -0.684  0.00  0.00    +0.266 A 
ATOM      5  N   LIG    1        6.066  -0.212  -0.121  0.00  0.00    -0.311 N 
ATOM      6  H   LIG    1        7.026  -0.476  -0.289  0.00  0.00    +0.170 HD
ATOM      7  C   LIG    1        5.844   0.928   0.635  0.00  0.00    +0.097 A 
ATOM      8  N   LIG    1        4.638   1.322   0.896  0.00  0.00    -0.235 NA
ATOM      9  O   LIG    1        5.465  -2.038  -1.344  0.00  0.00    -0.267 OA
ATOM     10  C   LIG    1        3.603   0.575   0.405  0.00  0.00    +0.086 A 
ATOM     11  C   LIG    1        2.243   0.846   0.598  0.00  0.00    +0.044 A 
ENDROOT
BRANCH   7  12
ATOM     12  C   LIG    1        7.078   1.692   1.142  0.00  0.00    -0.001 C 
ATOM     13  N   LIG    1        7.511   2.802   0.138  0.00  0.00    +0.386 N 
ATOM     14  H   LIG    1        7.553   2.416  -0.795  0.00  0.00    -0.081 HD
ATOM     15  C   LIG    1        6.529   4.006   0.147  0.00  0.00    -0.078 C 
ATOM     16  C   LIG    1        6.447   4.582   1.585  0.00  0.00    -0.015 C 
ATOM     17  C   LIG    1        7.375   3.826   2.570  0.00  0.00    -0.016 C 
ATOM     18  C   LIG    1        8.818   3.907   1.998  0.00  0.00    -0.015 C 
ATOM     19  C   LIG    1        8.910   3.324   0.559  0.00  0.00    -0.078 C 
ATOM     20  C   LIG    1        6.950   2.333   2.565  0.00  0.00    -0.004 C 
ENDBRANCH   7  12
BRANCH   1  23
ATOM     21  C   LIG    1       -0.664   2.456  -0.348  0.00  0.00    +0.068 C 
ATOM     22  C   LIG    1       -0.955   0.985  -0.143  0.00  0.00    +0.068 A 
ATOM     23  C   LIG    1       -0.058  -0.099  -0.010  0.00  0.00    +0.029 A 
ATOM     24  C   LIG    1       -0.875  -1.210   0.132  0.00  0.00    +0.114 A 
ATOM     25  N   LIG    1       -2.153  -0.734   0.085  0.00  0.00    -0.284 N 
ATOM     26  H   LIG    1       -2.985  -1.301   0.164  0.00  0.00    +0.188 HD
ATOM     27  N   LIG    1       -2.210   0.589  -0.078  0.00  0.00    -0.179 NA
ENDBRANCH   1  23
TORSDOF 2
