REMARK  Name = DB16216
REMARK                            x       y       z     vdW  Elec       q    Type
REMARK                         _______ _______ _______ _____ _____    ______ ____
ROOT
ATOM      1  N   LIG    1       -0.078   0.243  -0.030  0.00  0.00    -0.281 N 
ATOM      2  H   LIG    1       -0.697  -0.511  -0.290  0.00  0.00    +0.155 HD
ENDROOT
BRANCH   1   8
ATOM      3  C   LIG    1       -0.043   2.724  -0.265  0.00  0.00    +0.143 A 
ATOM      4  C   LIG    1       -0.764   3.922  -0.134  0.00  0.00    +0.072 A 
ATOM      5  C   LIG    1       -2.120   3.947   0.225  0.00  0.00    +0.055 A 
ATOM      6  C   LIG    1       -2.778   2.715   0.422  0.00  0.00    +0.057 A 
ATOM      7  C   LIG    1       -2.058   1.517   0.321  0.00  0.00    +0.052 A 
ATOM      8  C   LIG    1       -0.698   1.508   0.008  0.00  0.00    +0.078 A 
BRANCH   5   9
ATOM      9  N   LIG    1       -2.807   5.162   0.301  0.00  0.00    -0.324 N 
ATOM     10  C   LIG    1       -3.792   5.458  -0.754  0.00  0.00    +0.133 C 
ATOM     11  C   LIG    1       -4.748   6.605  -0.360  0.00  0.00    +0.178 C 
ATOM     12  O   LIG    1       -4.000   7.769  -0.033  0.00  0.00    -0.377 OA
ATOM     13  C   LIG    1       -3.090   7.539   1.034  0.00  0.00    +0.178 C 
ATOM     14  C   LIG    1       -2.108   6.413   0.647  0.00  0.00    +0.133 C 
ENDBRANCH   5   9
BRANCH   6  15
ATOM     15  N   LIG    1       -4.132   2.699   0.818  0.00  0.00    -0.280 N 
ATOM     16  H   LIG    1       -4.420   3.470   1.402  0.00  0.00    +0.155 HD
ATOM     17  C   LIG    1       -5.100   1.864   0.374  0.00  0.00    +0.241 C 
ATOM     18  O   LIG    1       -4.915   0.970  -0.452  0.00  0.00    -0.271 OA
BRANCH  17  19
ATOM     19  C   LIG    1       -6.409   2.070   0.953  0.00  0.00    +0.060 C 
ATOM     20  C   LIG    1       -6.885   3.264   1.358  0.00  0.00    +0.013 C 
ENDBRANCH  17  19
ENDBRANCH   6  15
BRANCH   3  22
ATOM     21  C   LIG    1        1.999   3.902  -0.879  0.00  0.00    +0.277 C 
ATOM     22  O   LIG    1        1.272   2.691  -0.699  0.00  0.00    -0.493 OA
ENDBRANCH   3  22
ENDBRANCH   1   8
BRANCH   1  23
ATOM     23  C   LIG    1        1.226  -0.179   0.275  0.00  0.00    +0.221 A 
ATOM     24  N   LIG    1        2.059   0.657   0.948  0.00  0.00    -0.195 NA
ATOM     25  C   LIG    1        3.319   0.217   1.226  0.00  0.00    +0.159 A 
ATOM     26  C   LIG    1        3.728  -1.077   0.870  0.00  0.00    +0.068 A 
ATOM     27  C   LIG    1        2.793  -1.880   0.211  0.00  0.00    +0.118 A 
ATOM     28  N   LIG    1        1.541  -1.448  -0.092  0.00  0.00    -0.223 NA
BRANCH  25  29
ATOM     29  N   LIG    1        4.205   1.124   1.870  0.00  0.00    -0.221 N 
ATOM     30  N   LIG    1        3.867   2.408   2.075  0.00  0.00    -0.165 NA
ATOM     31  C   LIG    1        4.896   2.989   2.654  0.00  0.00    +0.095 A 
ATOM     32  C   LIG    1        5.942   2.070   2.907  0.00  0.00    -0.018 A 
ATOM     33  C   LIG    1        5.468   0.890   2.354  0.00  0.00    +0.118 A 
BRANCH  31  34
ATOM     34  C   LIG    1        4.831   4.448   2.974  0.00  0.00    +0.002 A 
ATOM     35  C   LIG    1        5.927   5.280   2.722  0.00  0.00    +0.010 A 
ATOM     36  C   LIG    1        5.862   6.638   3.023  0.00  0.00    +0.001 A 
ATOM     37  C   LIG    1        4.697   7.168   3.573  0.00  0.00    +0.000 A 
ATOM     38  C   LIG    1        3.596   6.352   3.819  0.00  0.00    +0.001 A 
ATOM     39  C   LIG    1        3.662   4.995   3.517  0.00  0.00    +0.010 A 
ENDBRANCH  31  34
BRANCH  32  40
ATOM     40  C   LIG    1        7.286   2.282   3.583  0.00  0.00    -0.040 C 
BRANCH  40  41
ATOM     41  N   LIG    1        7.172   2.022   5.104  0.00  0.00    +0.379 N 
ATOM     42  H   LIG    1        6.793   1.092   5.215  0.00  0.00    -0.082 HD
ATOM     43  C   LIG    1        8.560   2.021   5.774  0.00  0.00    -0.096 C 
ATOM     44  C   LIG    1        6.218   2.991   5.835  0.00  0.00    -0.096 C 
ENDBRANCH  40  41
ENDBRANCH  32  40
ENDBRANCH  25  29
ENDBRANCH   1  23
TORSDOF 10
