REMARK  Name = DB16894
REMARK                            x       y       z     vdW  Elec       q    Type
REMARK                         _______ _______ _______ _____ _____    ______ ____
ROOT
ATOM      1  O   LIG    1       -5.343  -2.179   0.180  0.00  0.00    -0.247 OA
ATOM      2  C   LIG    1       -4.282  -1.561   0.107  0.00  0.00    +0.328 A 
ATOM      3  N   LIG    1       -3.015  -2.060   0.047  0.00  0.00    -0.277 N 
ATOM      4  C   LIG    1       -2.505  -3.450   0.102  0.00  0.00    +0.178 C 
ATOM      5  C   LIG    1       -1.009  -3.471  -0.392  0.00  0.00    +0.260 C 
ATOM      6  O   LIG    1       -0.169  -2.396   0.089  0.00  0.00    -0.487 OA
ATOM      7  C   LIG    1       -0.752  -1.146   0.034  0.00  0.00    +0.154 A 
ATOM      8  C   LIG    1       -0.000   0.039   0.016  0.00  0.00    +0.031 A 
ATOM      9  C   LIG    1       -0.673   1.280   0.003  0.00  0.00    +0.014 A 
ATOM     10  C   LIG    1       -2.079   1.344   0.019  0.00  0.00    +0.028 A 
ATOM     11  C   LIG    1       -2.790   0.143   0.043  0.00  0.00    +0.071 A 
ATOM     12  C   LIG    1       -2.128  -1.034   0.052  0.00  0.00    +0.113 A 
ATOM     13  N   LIG    1       -4.122  -0.210   0.072  0.00  0.00    -0.306 N 
ATOM     14  H   LIG    1       -4.888   0.447   0.101  0.00  0.00    +0.170 HD
ENDROOT
BRANCH   8  15
ATOM     15  C   LIG    1        1.482   0.003   0.004  0.00  0.00    +0.050 A 
ATOM     16  C   LIG    1        2.335  -0.028  -1.106  0.00  0.00    +0.089 A 
ATOM     17  C   LIG    1        1.980  -0.035  -2.576  0.00  0.00    +0.070 C 
ATOM     18  N   LIG    1        3.600  -0.057  -0.747  0.00  0.00    -0.083 NA
ATOM     19  O   LIG    1        3.614  -0.056   0.646  0.00  0.00    -0.359 OA
ATOM     20  C   LIG    1        2.334  -0.023   1.091  0.00  0.00    +0.142 A 
ATOM     21  C   LIG    1        2.137  -0.025   2.587  0.00  0.00    +0.090 C 
ENDBRANCH   8  15
BRANCH   4  22
ATOM     22  C   LIG    1       -3.388  -4.494  -0.583  0.00  0.00    +0.067 A 
ATOM     23  C   LIG    1       -3.839  -5.620   0.115  0.00  0.00    +0.025 A 
ATOM     24  C   LIG    1       -4.648  -6.542  -0.553  0.00  0.00    +0.003 A 
ATOM     25  C   LIG    1       -4.985  -6.320  -1.890  0.00  0.00    +0.020 A 
ATOM     26  C   LIG    1       -4.495  -5.174  -2.519  0.00  0.00    +0.111 A 
ATOM     27  N   LIG    1       -3.706  -4.267  -1.888  0.00  0.00    -0.258 NA
ENDBRANCH   4  22
TORSDOF 2
