REMARK  Name = DB16826
REMARK                            x       y       z     vdW  Elec       q    Type
REMARK                         _______ _______ _______ _____ _____    ______ ____
ROOT
ATOM      1  C   LIG    1       -4.422   2.519  -0.234  0.00  0.00    +0.124 A 
ATOM      2  F   LIG    1       -5.722   2.888  -0.266  0.00  0.00    -0.205 F 
ATOM      3  C   LIG    1       -3.445   3.440   0.133  0.00  0.00    +0.047 A 
ATOM      4  C   LIG    1       -2.091   3.078   0.168  0.00  0.00    +0.017 A 
ATOM      5  C   LIG    1       -1.039   4.145   0.537  0.00  0.00    +0.103 C 
ATOM      6  C   LIG    1       -0.850   5.142  -0.617  0.00  0.00    +0.033 C 
ATOM      7  N   LIG    1       -1.355   4.842   1.798  0.00  0.00    -0.322 N 
ATOM      8  H   LIG    1       -1.270   5.848   1.811  0.00  0.00    +0.148 HD
ATOM      9  C   LIG    1       -1.328   4.178   3.038  0.00  0.00    +0.123 A 
ATOM     10  N   LIG    1       -1.101   2.839   3.039  0.00  0.00    -0.213 NA
ATOM     11  C   LIG    1       -1.037   2.193   4.205  0.00  0.00    +0.170 A 
ATOM     12  N   LIG    1       -1.205   2.873   5.412  0.00  0.00    -0.221 N 
ATOM     13  C   LIG    1       -1.443   4.223   5.442  0.00  0.00    +0.118 A 
ATOM     14  N   LIG    1       -1.098   2.036   6.468  0.00  0.00    -0.173 NA
ATOM     15  C   LIG    1       -0.867   0.847   5.935  0.00  0.00    +0.150 A 
ATOM     16  C   LIG    1       -0.815   0.829   4.532  0.00  0.00    +0.100 A 
ATOM     17  C   LIG    1       -0.590  -0.311   3.679  0.00  0.00    +0.249 C 
ATOM     18  O   LIG    1       -0.383  -1.445   4.109  0.00  0.00    -0.270 OA
ATOM     19  N   LIG    1       -0.650   0.031   2.382  0.00  0.00    -0.308 N 
ATOM     20  H   LIG    1       -0.862   1.002   2.193  0.00  0.00    +0.149 HD
ATOM     21  C   LIG    1       -0.530  -0.789   1.189  0.00  0.00    +0.148 C 
ATOM     22  C   LIG    1        0.055   0.029  -0.002  0.00  0.00    +0.187 C 
ATOM     23  C   LIG    1        1.590   0.086   0.048  0.00  0.00    +0.053 C 
ATOM     24  O   LIG    1       -0.381   1.403  -0.066  0.00  0.00    -0.487 OA
ATOM     25  C   LIG    1       -1.507   4.904   4.222  0.00  0.00    +0.063 A 
ATOM     26  C   LIG    1       -1.719   1.752  -0.151  0.00  0.00    +0.126 A 
ATOM     27  C   LIG    1       -2.716   0.843  -0.542  0.00  0.00    +0.049 A 
ATOM     28  C   LIG    1       -4.056   1.222  -0.579  0.00  0.00    +0.042 A 
ENDROOT
TORSDOF 0
