REMARK  Name = DB16293
REMARK                            x       y       z     vdW  Elec       q    Type
REMARK                         _______ _______ _______ _____ _____    ______ ____
ROOT
ATOM      1  C   LIG    1        1.600   0.270   0.107  0.00  0.00    +0.234 C 
ATOM      2  N   LIG    1        2.229   1.437   0.319  0.00  0.00    -0.302 N 
ATOM      3  H   LIG    1        1.688   2.280   0.445  0.00  0.00    +0.150 HD
ATOM      4  O   LIG    1        2.170  -0.811  -0.055  0.00  0.00    -0.274 OA
ENDROOT
BRANCH   1   5
ATOM      5  C   LIG    1        0.066   0.329   0.106  0.00  0.00    +0.159 C 
BRANCH   5   7
ATOM      6  C   LIG    1       -0.828  -0.056  -2.175  0.00  0.00    +0.234 C 
ATOM      7  N   LIG    1       -0.459  -0.511  -0.968  0.00  0.00    -0.302 N 
ATOM      8  H   LIG    1       -0.545  -1.494  -0.757  0.00  0.00    +0.150 HD
ATOM      9  O   LIG    1       -0.748   1.119  -2.535  0.00  0.00    -0.274 OA
BRANCH   6  10
ATOM     10  C   LIG    1       -1.368  -1.116  -3.150  0.00  0.00    +0.159 C 
BRANCH  10  12
ATOM     11  C   LIG    1       -3.774  -0.464  -3.129  0.00  0.00    +0.234 C 
ATOM     12  N   LIG    1       -2.618  -0.684  -3.782  0.00  0.00    -0.302 N 
ATOM     13  H   LIG    1       -2.567  -0.494  -4.772  0.00  0.00    +0.150 HD
ATOM     14  O   LIG    1       -3.939  -0.669  -1.925  0.00  0.00    -0.274 OA
BRANCH  11  15
ATOM     15  C   LIG    1       -4.932   0.073  -3.982  0.00  0.00    +0.156 C 
ATOM     16  C   LIG    1       -6.130   0.562  -3.143  0.00  0.00    +0.038 C 
BRANCH  15  18
ATOM     17  C   LIG    1       -5.987  -0.699  -6.090  0.00  0.00    +0.234 C 
ATOM     18  N   LIG    1       -5.366  -0.953  -4.928  0.00  0.00    -0.303 N 
ATOM     19  H   LIG    1       -5.185  -1.910  -4.658  0.00  0.00    +0.149 HD
ATOM     20  O   LIG    1       -6.247   0.433  -6.502  0.00  0.00    -0.274 OA
BRANCH  17  21
ATOM     21  C   LIG    1       -6.359  -1.930  -6.932  0.00  0.00    +0.159 C 
BRANCH  21  23
ATOM     22  C   LIG    1       -8.344  -2.552  -8.301  0.00  0.00    +0.234 C 
ATOM     23  N   LIG    1       -7.529  -1.634  -7.759  0.00  0.00    -0.302 N 
ATOM     24  H   LIG    1       -7.714  -0.654  -7.915  0.00  0.00    +0.150 HD
ATOM     25  O   LIG    1       -8.215  -3.769  -8.160  0.00  0.00    -0.274 OA
BRANCH  22  26
ATOM     26  C   LIG    1       -9.519  -1.989  -9.117  0.00  0.00    +0.159 C 
BRANCH  26  28
ATOM     27  C   LIG    1       -9.267  -2.985 -11.382  0.00  0.00    +0.234 C 
ATOM     28  N   LIG    1       -9.907  -2.885 -10.206  0.00  0.00    -0.302 N 
ATOM     29  H   LIG    1      -10.724  -3.453 -10.039  0.00  0.00    +0.150 HD
ATOM     30  O   LIG    1       -8.253  -2.352 -11.682  0.00  0.00    -0.274 OA
BRANCH  27  31
ATOM     31  C   LIG    1       -9.880  -3.970 -12.390  0.00  0.00    +0.159 C 
BRANCH  31  33
ATOM     32  C   LIG    1      -11.134  -2.425 -13.889  0.00  0.00    +0.234 C 
ATOM     33  N   LIG    1      -10.153  -3.317 -13.670  0.00  0.00    -0.302 N 
ATOM     34  H   LIG    1       -9.563  -3.597 -14.440  0.00  0.00    +0.150 HD
ATOM     35  O   LIG    1      -11.915  -2.024 -13.025  0.00  0.00    -0.274 OA
BRANCH  32  36
ATOM     36  C   LIG    1      -11.273  -1.940 -15.341  0.00  0.00    +0.163 C 
BRANCH  36  38
ATOM     37  C   LIG    1      -11.513  -3.965 -16.771  0.00  0.00    +0.234 C 
ATOM     38  N   LIG    1      -12.035  -2.916 -16.117  0.00  0.00    -0.302 N 
ATOM     39  H   LIG    1      -13.020  -2.717 -16.215  0.00  0.00    +0.150 HD
ATOM     40  O   LIG    1      -10.329  -4.302 -16.728  0.00  0.00    -0.274 OA
BRANCH  37  41
ATOM     41  C   LIG    1      -12.493  -4.728 -17.666  0.00  0.00    +0.159 C 
BRANCH  41  43
ATOM     42  C   LIG    1      -13.255  -3.902 -19.887  0.00  0.00    +0.231 C 
ATOM     43  N   LIG    1      -12.283  -4.261 -19.036  0.00  0.00    -0.303 N 
ATOM     44  H   LIG    1      -11.319  -4.177 -19.324  0.00  0.00    +0.149 HD
ATOM     45  O   LIG    1      -14.453  -3.969 -19.605  0.00  0.00    -0.274 OA
BRANCH  42  46
ATOM     46  C   LIG    1      -12.777  -3.378 -21.252  0.00  0.00    +0.200 C 
BRANCH  46  48
ATOM     47  C   LIG    1      -14.809  -2.534 -22.404  0.00  0.00    +0.234 C 
ATOM     48  N   LIG    1      -13.846  -3.457 -22.245  0.00  0.00    -0.305 N 
ATOM     49  H   LIG    1      -13.883  -4.298 -22.802  0.00  0.00    +0.149 HD
ATOM     50  O   LIG    1      -14.870  -1.474 -21.780  0.00  0.00    -0.274 OA
BRANCH  47  51
ATOM     51  C   LIG    1      -15.906  -2.879 -23.430  0.00  0.00    +0.162 C 
BRANCH  51  52
ATOM     52  N   LIG    1      -17.210  -2.952 -22.766  0.00  0.00    -0.303 N 
ATOM     53  H   LIG    1      -17.833  -2.177 -22.944  0.00  0.00    +0.149 HD
ATOM     54  C   LIG    1      -17.599  -3.924 -21.922  0.00  0.00    +0.227 C 
ATOM     55  O   LIG    1      -16.890  -4.900 -21.658  0.00  0.00    -0.274 OA
BRANCH  54  56
ATOM     56  C   LIG    1      -18.998  -3.732 -21.304  0.00  0.00    +0.174 C 
BRANCH  56  57
ATOM     57  N   LIG    1      -19.310  -4.773 -20.352  0.00  0.00    -0.322 NA
ATOM     58  H   LIG    1      -20.279  -4.715 -20.075  0.00  0.00    +0.119 HD
ATOM     59  H   LIG    1      -18.770  -4.646 -19.508  0.00  0.00    +0.119 HD
ENDBRANCH  56  57
ENDBRANCH  54  56
ENDBRANCH  51  52
BRANCH  51  60
ATOM     60  C   LIG    1      -15.906  -1.823 -24.580  0.00  0.00    +0.015 C 
ATOM     61  C   LIG    1      -14.510  -1.554 -25.193  0.00  0.00    +0.010 C 
BRANCH  60  63
ATOM     62  C   LIG    1      -17.187  -1.115 -26.717  0.00  0.00    +0.004 C 
ATOM     63  C   LIG    1      -16.902  -2.226 -25.695  0.00  0.00    +0.002 C 
ENDBRANCH  60  63
ENDBRANCH  51  60
ENDBRANCH  47  51
ENDBRANCH  46  48
ENDBRANCH  42  46
ENDBRANCH  41  43
BRANCH  41  64
ATOM     64  C   LIG    1      -12.306  -6.260 -17.581  0.00  0.00    +0.032 C 
BRANCH  64  65
ATOM     65  C   LIG    1      -13.380  -7.045 -18.354  0.00  0.00    +0.000 C 
BRANCH  65  66
ATOM     66  C   LIG    1      -13.294  -8.565 -18.125  0.00  0.00    -0.019 C 
BRANCH  66  67
ATOM     67  C   LIG    1      -14.268  -9.386 -18.992  0.00  0.00    -0.086 C 
BRANCH  67  68
ATOM     68  N   LIG    1      -15.683  -9.127 -18.665  0.00  0.00    +0.378 N 
ATOM     69  H   LIG    1      -15.853  -9.354 -17.695  0.00  0.00    -0.090 HD
ATOM     70  H   LIG    1      -15.892  -8.152 -18.823  0.00  0.00    -0.090 HD
ATOM     71  H   LIG    1      -16.275  -9.697 -19.253  0.00  0.00    -0.090 HD
ENDBRANCH  67  68
ENDBRANCH  66  67
ENDBRANCH  65  66
ENDBRANCH  64  65
ENDBRANCH  41  64
ENDBRANCH  37  41
ENDBRANCH  36  38
BRANCH  36  72
ATOM     72  C   LIG    1      -11.975  -0.567 -15.454  0.00  0.00    +0.067 C 
BRANCH  72  73
ATOM     73  C   LIG    1      -12.136  -0.071 -16.882  0.00  0.00    -0.045 A 
ATOM     74  C   LIG    1      -11.044   0.509 -17.562  0.00  0.00    +0.004 A 
ATOM     75  C   LIG    1      -11.161   0.844 -18.905  0.00  0.00    +0.000 A 
ATOM     76  C   LIG    1      -12.342   0.587 -19.592  0.00  0.00    +0.000 A 
ATOM     77  C   LIG    1      -13.413  -0.013 -18.944  0.00  0.00    +0.000 A 
ATOM     78  C   LIG    1      -13.316  -0.356 -17.603  0.00  0.00    +0.004 A 
ENDBRANCH  72  73
ENDBRANCH  36  72
ENDBRANCH  32  36
ENDBRANCH  31  33
BRANCH  31  79
ATOM     79  C   LIG    1       -8.946  -5.181 -12.619  0.00  0.00    +0.034 C 
BRANCH  79  80
ATOM     80  C   LIG    1       -9.518  -6.281 -13.546  0.00  0.00    -0.015 C 
ATOM     81  C   LIG    1       -8.462  -7.370 -13.828  0.00  0.00    +0.007 C 
ATOM     82  C   LIG    1      -10.843  -6.875 -13.022  0.00  0.00    +0.007 C 
ENDBRANCH  79  80
ENDBRANCH  31  79
ENDBRANCH  27  31
ENDBRANCH  26  28
BRANCH  26  83
ATOM     83  C   LIG    1      -10.744  -1.740  -8.212  0.00  0.00    +0.032 C 
BRANCH  83  84
ATOM     84  C   LIG    1      -11.876  -0.970  -8.917  0.00  0.00    +0.000 C 
BRANCH  84  85
ATOM     85  C   LIG    1      -13.063  -0.685  -7.986  0.00  0.00    -0.019 C 
BRANCH  85  86
ATOM     86  C   LIG    1      -14.193   0.079  -8.696  0.00  0.00    -0.086 C 
BRANCH  86  87
ATOM     87  N   LIG    1      -15.325   0.345  -7.790  0.00  0.00    +0.378 N 
ATOM     88  H   LIG    1      -15.698  -0.530  -7.451  0.00  0.00    -0.090 HD
ATOM     89  H   LIG    1      -15.007   0.900  -7.008  0.00  0.00    -0.090 HD
ATOM     90  H   LIG    1      -16.046   0.848  -8.288  0.00  0.00    -0.090 HD
ENDBRANCH  86  87
ENDBRANCH  85  86
ENDBRANCH  84  85
ENDBRANCH  83  84
ENDBRANCH  26  83
ENDBRANCH  22  26
ENDBRANCH  21  23
BRANCH  21  91
ATOM     91  C   LIG    1       -5.186  -2.427  -7.814  0.00  0.00    +0.032 C 
BRANCH  91  92
ATOM     92  C   LIG    1       -4.669  -1.415  -8.856  0.00  0.00    +0.000 C 
BRANCH  92  93
ATOM     93  C   LIG    1       -3.570  -2.003  -9.752  0.00  0.00    -0.019 C 
BRANCH  93  94
ATOM     94  C   LIG    1       -3.071  -0.996 -10.800  0.00  0.00    -0.086 C 
BRANCH  94  95
ATOM     95  N   LIG    1       -2.022  -1.575 -11.659  0.00  0.00    +0.378 N 
ATOM     96  H   LIG    1       -1.235  -1.853 -11.090  0.00  0.00    -0.090 HD
ATOM     97  H   LIG    1       -2.389  -2.381 -12.143  0.00  0.00    -0.090 HD
ATOM     98  H   LIG    1       -1.722  -0.886 -12.334  0.00  0.00    -0.090 HD
ENDBRANCH  94  95
ENDBRANCH  93  94
ENDBRANCH  92  93
ENDBRANCH  91  92
ENDBRANCH  21  91
ENDBRANCH  17  21
ENDBRANCH  15  18
ENDBRANCH  11  15
ENDBRANCH  10  12
BRANCH  10  99
ATOM     99  C   LIG    1       -0.343  -1.483  -4.248  0.00  0.00    +0.032 C 
BRANCH  99 100
ATOM    100  C   LIG    1        1.053  -1.872  -3.720  0.00  0.00    +0.000 C 
BRANCH 100 101
ATOM    101  C   LIG    1        1.991  -2.385  -4.827  0.00  0.00    -0.019 C 
BRANCH 101 102
ATOM    102  C   LIG    1        3.449  -2.586  -4.370  0.00  0.00    -0.086 C 
BRANCH 102 103
ATOM    103  N   LIG    1        3.592  -3.649  -3.357  0.00  0.00    +0.378 N 
ATOM    104  H   LIG    1        3.055  -3.406  -2.537  0.00  0.00    -0.090 HD
ATOM    105  H   LIG    1        3.257  -4.523  -3.734  0.00  0.00    -0.090 HD
ATOM    106  H   LIG    1        4.566  -3.743  -3.104  0.00  0.00    -0.090 HD
ENDBRANCH 102 103
ENDBRANCH 101 102
ENDBRANCH 100 101
ENDBRANCH  99 100
ENDBRANCH  10  99
ENDBRANCH   6  10
ENDBRANCH   5   7
BRANCH   5 107
ATOM    107  C   LIG    1       -0.495  -0.163   1.460  0.00  0.00    +0.032 C 
BRANCH 107 108
ATOM    108  C   LIG    1       -2.032  -0.289   1.530  0.00  0.00    +0.000 C 
BRANCH 108 109
ATOM    109  C   LIG    1       -2.800   0.986   1.144  0.00  0.00    -0.019 C 
BRANCH 109 110
ATOM    110  C   LIG    1       -4.321   0.811   1.282  0.00  0.00    -0.086 C 
BRANCH 110 111
ATOM    111  N   LIG    1       -5.051   2.013   0.842  0.00  0.00    +0.378 N 
ATOM    112  H   LIG    1       -4.776   2.802   1.409  0.00  0.00    -0.090 HD
ATOM    113  H   LIG    1       -4.833   2.202  -0.126  0.00  0.00    -0.090 HD
ATOM    114  H   LIG    1       -6.044   1.859   0.940  0.00  0.00    -0.090 HD
ENDBRANCH 110 111
ENDBRANCH 109 110
ENDBRANCH 108 109
ENDBRANCH 107 108
ENDBRANCH   5 107
ENDBRANCH   1   5
BRANCH   2 115
ATOM    115  C   LIG    1        3.673   1.574   0.492  0.00  0.00    +0.163 C 
BRANCH 115 116
ATOM    116  C   LIG    1        4.031   1.368   1.972  0.00  0.00    +0.234 C 
ATOM    117  N   LIG    1        4.846   0.336   2.248  0.00  0.00    -0.305 N 
ATOM    118  H   LIG    1        5.179  -0.243   1.491  0.00  0.00    +0.149 HD
ATOM    119  O   LIG    1        3.566   2.134   2.818  0.00  0.00    -0.274 OA
BRANCH 117 120
ATOM    120  C   LIG    1        5.265  -0.046   3.597  0.00  0.00    +0.200 C 
BRANCH 120 121
ATOM    121  C   LIG    1        4.099  -0.650   4.396  0.00  0.00    +0.231 C 
ATOM    122  N   LIG    1        4.183  -0.520   5.729  0.00  0.00    -0.303 N 
ATOM    123  H   LIG    1        4.976  -0.040   6.130  0.00  0.00    +0.149 HD
ATOM    124  O   LIG    1        3.171  -1.230   3.828  0.00  0.00    -0.274 OA
BRANCH 122 125
ATOM    125  C   LIG    1        3.188  -0.997   6.689  0.00  0.00    +0.159 C 
BRANCH 125 126
ATOM    126  C   LIG    1        3.275  -0.157   7.972  0.00  0.00    +0.234 C 
ATOM    127  N   LIG    1        2.105   0.135   8.564  0.00  0.00    -0.303 N 
ATOM    128  H   LIG    1        1.244  -0.184   8.144  0.00  0.00    +0.149 HD
ATOM    129  O   LIG    1        4.377   0.180   8.409  0.00  0.00    -0.274 OA
BRANCH 127 130
ATOM    130  C   LIG    1        1.976   0.798   9.861  0.00  0.00    +0.156 C 
ATOM    131  C   LIG    1        0.636   1.548   9.909  0.00  0.00    +0.038 C 
BRANCH 130 132
ATOM    132  C   LIG    1        2.061  -0.233  10.996  0.00  0.00    +0.234 C 
ATOM    133  N   LIG    1        2.877   0.080  12.015  0.00  0.00    -0.302 N 
ATOM    134  H   LIG    1        3.393   0.948  11.988  0.00  0.00    +0.150 HD
ATOM    135  O   LIG    1        1.384  -1.260  10.935  0.00  0.00    -0.274 OA
BRANCH 133 136
ATOM    136  C   LIG    1        3.105  -0.762  13.190  0.00  0.00    +0.163 C 
BRANCH 136 137
ATOM    137  C   LIG    1        2.632  -0.014  14.445  0.00  0.00    +0.234 C 
ATOM    138  N   LIG    1        1.303   0.159  14.546  0.00  0.00    -0.302 N 
ATOM    139  H   LIG    1        0.702  -0.210  13.824  0.00  0.00    +0.150 HD
ATOM    140  O   LIG    1        3.450   0.401  15.267  0.00  0.00    -0.274 OA
BRANCH 138 141
ATOM    141  C   LIG    1        0.627   0.835  15.654  0.00  0.00    +0.161 C 
BRANCH 141 142
ATOM    142  C   LIG    1        0.691  -0.015  16.938  0.00  0.00    +0.234 C 
ATOM    143  N   LIG    1        1.211   0.595  18.015  0.00  0.00    -0.302 N 
ATOM    144  H   LIG    1        1.544   1.545  17.933  0.00  0.00    +0.150 HD
ATOM    145  O   LIG    1        0.260  -1.169  16.927  0.00  0.00    -0.274 OA
BRANCH 143 146
ATOM    146  C   LIG    1        1.300   0.005  19.348  0.00  0.00    +0.159 C 
BRANCH 146 147
ATOM    147  C   LIG    1        0.019   0.331  20.130  0.00  0.00    +0.234 C 
ATOM    148  N   LIG    1       -1.019  -0.494  19.910  0.00  0.00    -0.302 N 
ATOM    149  H   LIG    1       -0.904  -1.268  19.272  0.00  0.00    +0.150 HD
ATOM    150  O   LIG    1       -0.017   1.312  20.874  0.00  0.00    -0.274 OA
BRANCH 148 151
ATOM    151  C   LIG    1       -2.332  -0.382  20.546  0.00  0.00    +0.162 C 
BRANCH 151 152
ATOM    152  C   LIG    1       -2.267  -0.691  22.057  0.00  0.00    +0.234 C 
ATOM    153  N   LIG    1       -2.979   0.128  22.847  0.00  0.00    -0.302 N 
ATOM    154  H   LIG    1       -3.510   0.878  22.429  0.00  0.00    +0.150 HD
ATOM    155  O   LIG    1       -1.582  -1.631  22.464  0.00  0.00    -0.274 OA
BRANCH 153 156
ATOM    156  C   LIG    1       -3.038   0.048  24.305  0.00  0.00    +0.159 C 
BRANCH 156 157
ATOM    157  C   LIG    1       -4.493  -0.210  24.731  0.00  0.00    +0.234 C 
ATOM    158  N   LIG    1       -5.037  -1.356  24.285  0.00  0.00    -0.302 N 
ATOM    159  H   LIG    1       -4.480  -1.977  23.716  0.00  0.00    +0.150 HD
ATOM    160  O   LIG    1       -5.092   0.612  25.427  0.00  0.00    -0.274 OA
BRANCH 158 161
ATOM    161  C   LIG    1       -6.388  -1.820  24.601  0.00  0.00    +0.159 C 
BRANCH 161 162
ATOM    162  C   LIG    1       -6.495  -2.272  26.069  0.00  0.00    +0.234 C 
ATOM    163  N   LIG    1       -7.568  -1.826  26.744  0.00  0.00    -0.302 N 
ATOM    164  H   LIG    1       -8.229  -1.223  26.277  0.00  0.00    +0.150 HD
ATOM    165  O   LIG    1       -5.634  -3.015  26.542  0.00  0.00    -0.274 OA
BRANCH 163 166
ATOM    166  C   LIG    1       -7.896  -2.190  28.123  0.00  0.00    +0.159 C 
BRANCH 166 167
ATOM    167  C   LIG    1       -8.425  -3.639  28.215  0.00  0.00    +0.231 C 
ATOM    168  O   LIG    1       -9.325  -4.020  27.467  0.00  0.00    -0.274 OA
ATOM    169  N   LIG    1       -7.883  -4.421  29.154  0.00  0.00    -0.328 N 
ATOM    170  H   LIG    1       -8.195  -5.375  29.257  0.00  0.00    +0.145 HD
ATOM    171  H   LIG    1       -7.143  -4.073  29.746  0.00  0.00    +0.145 HD
ENDBRANCH 166 167
BRANCH 166 172
ATOM    172  C   LIG    1       -8.910  -1.154  28.660  0.00  0.00    +0.032 C 
BRANCH 172 173
ATOM    173  C   LIG    1       -9.339  -1.364  30.125  0.00  0.00    +0.000 C 
BRANCH 173 174
ATOM    174  C   LIG    1      -10.247  -0.230  30.637  0.00  0.00    -0.019 C 
BRANCH 174 175
ATOM    175  C   LIG    1      -10.676  -0.379  32.108  0.00  0.00    -0.086 C 
BRANCH 175 176
ATOM    176  N   LIG    1      -11.602  -1.507  32.319  0.00  0.00    +0.378 N 
ATOM    177  H   LIG    1      -12.431  -1.372  31.758  0.00  0.00    -0.090 HD
ATOM    178  H   LIG    1      -11.150  -2.369  32.050  0.00  0.00    -0.090 HD
ATOM    179  H   LIG    1      -11.860  -1.553  33.295  0.00  0.00    -0.090 HD
ENDBRANCH 175 176
ENDBRANCH 174 175
ENDBRANCH 173 174
ENDBRANCH 172 173
ENDBRANCH 166 172
ENDBRANCH 163 166
ENDBRANCH 161 162
BRANCH 161 180
ATOM    180  C   LIG    1       -6.764  -2.951  23.618  0.00  0.00    +0.032 C 
BRANCH 180 181
ATOM    181  C   LIG    1       -8.192  -3.503  23.789  0.00  0.00    +0.003 C 
BRANCH 181 182
ATOM    182  C   LIG    1       -8.551  -4.546  22.723  0.00  0.00    +0.015 C 
BRANCH 182 183
ATOM    183  C   LIG    1       -9.967  -5.105  22.916  0.00  0.00    +0.077 C 
BRANCH 183 184
ATOM    184  N   LIG    1      -10.256  -6.088  21.891  0.00  0.00    -0.330 NA
ATOM    185  H   LIG    1      -11.185  -6.459  22.030  0.00  0.00    +0.118 HD
ATOM    186  H   LIG    1       -9.621  -6.869  21.982  0.00  0.00    +0.118 HD
ENDBRANCH 183 184
ENDBRANCH 182 183
ENDBRANCH 181 182
ENDBRANCH 180 181
ENDBRANCH 161 180
ENDBRANCH 158 161
ENDBRANCH 156 157
BRANCH 156 187
ATOM    187  C   LIG    1       -2.447   1.345  24.916  0.00  0.00    +0.034 C 
BRANCH 187 188
ATOM    188  C   LIG    1       -0.957   1.606  24.590  0.00  0.00    -0.015 C 
ATOM    189  C   LIG    1       -0.508   2.989  25.110  0.00  0.00    +0.007 C 
ATOM    190  C   LIG    1       -0.031   0.470  25.078  0.00  0.00    +0.007 C 
ENDBRANCH 187 188
ENDBRANCH 156 187
ENDBRANCH 153 156
ENDBRANCH 151 152
BRANCH 151 191
ATOM    191  C   LIG    1       -3.368  -1.316  19.845  0.00  0.00    +0.015 C 
ATOM    192  C   LIG    1       -2.995  -2.814  19.892  0.00  0.00    +0.010 C 
BRANCH 191 193
ATOM    193  C   LIG    1       -4.824  -1.135  20.337  0.00  0.00    +0.002 C 
ATOM    194  C   LIG    1       -5.364   0.297  20.209  0.00  0.00    +0.004 C 
ENDBRANCH 191 193
ENDBRANCH 151 191
ENDBRANCH 148 151
ENDBRANCH 146 147
BRANCH 146 195
ATOM    195  C   LIG    1        2.573   0.524  20.052  0.00  0.00    +0.032 C 
BRANCH 195 196
ATOM    196  C   LIG    1        3.873   0.029  19.396  0.00  0.00    +0.003 C 
BRANCH 196 197
ATOM    197  C   LIG    1        5.126   0.504  20.142  0.00  0.00    +0.015 C 
BRANCH 197 198
ATOM    198  C   LIG    1        6.418  -0.003  19.488  0.00  0.00    +0.077 C 
BRANCH 198 199
ATOM    199  N   LIG    1        7.570   0.461  20.235  0.00  0.00    -0.330 NA
ATOM    200  H   LIG    1        8.415   0.122  19.799  0.00  0.00    +0.118 HD
ATOM    201  H   LIG    1        7.551   0.069  21.166  0.00  0.00    +0.118 HD
ENDBRANCH 198 199
ENDBRANCH 197 198
ENDBRANCH 196 197
ENDBRANCH 195 196
ENDBRANCH 146 195
ENDBRANCH 143 146
ENDBRANCH 141 142
BRANCH 141 202
ATOM    202  C   LIG    1       -0.865   1.123  15.308  0.00  0.00    +0.012 C 
ATOM    203  C   LIG    1       -1.709   1.667  16.484  0.00  0.00    +0.009 C 
ATOM    204  C   LIG    1       -0.977   2.084  14.111  0.00  0.00    +0.009 C 
ENDBRANCH 141 202
ENDBRANCH 138 141
ENDBRANCH 136 137
BRANCH 136 205
ATOM    205  C   LIG    1        4.592  -1.178  13.255  0.00  0.00    +0.067 C 
BRANCH 205 206
ATOM    206  C   LIG    1        5.046  -2.067  12.110  0.00  0.00    -0.045 A 
ATOM    207  C   LIG    1        5.645  -1.502  10.963  0.00  0.00    +0.004 A 
ATOM    208  C   LIG    1        5.975  -2.308   9.883  0.00  0.00    +0.000 A 
ATOM    209  C   LIG    1        5.691  -3.667   9.912  0.00  0.00    +0.000 A 
ATOM    210  C   LIG    1        5.063  -4.230  11.015  0.00  0.00    +0.000 A 
ATOM    211  C   LIG    1        4.727  -3.441  12.107  0.00  0.00    +0.004 A 
ENDBRANCH 205 206
ENDBRANCH 136 205
ENDBRANCH 133 136
ENDBRANCH 130 132
ENDBRANCH 127 130
ENDBRANCH 125 126
BRANCH 125 212
ATOM    212  C   LIG    1        3.396  -2.511   6.943  0.00  0.00    +0.032 C 
BRANCH 212 213
ATOM    213  C   LIG    1        2.455  -3.127   7.994  0.00  0.00    +0.003 C 
BRANCH 213 214
ATOM    214  C   LIG    1        2.570  -4.658   8.076  0.00  0.00    +0.015 C 
BRANCH 214 215
ATOM    215  C   LIG    1        1.742  -5.266   9.218  0.00  0.00    +0.077 C 
BRANCH 215 216
ATOM    216  N   LIG    1        0.322  -5.133   8.953  0.00  0.00    -0.330 NA
ATOM    217  H   LIG    1       -0.204  -5.534   9.716  0.00  0.00    +0.118 HD
ATOM    218  H   LIG    1        0.080  -5.665   8.129  0.00  0.00    +0.118 HD
ENDBRANCH 215 216
ENDBRANCH 214 215
ENDBRANCH 213 214
ENDBRANCH 212 213
ENDBRANCH 125 212
ENDBRANCH 122 125
ENDBRANCH 120 121
ENDBRANCH 117 120
ENDBRANCH 115 116
BRANCH 115 219
ATOM    219  C   LIG    1        4.121   2.950  -0.047  0.00  0.00    +0.067 C 
BRANCH 219 220
ATOM    220  C   LIG    1        5.608   3.245   0.075  0.00  0.00    -0.045 A 
ATOM    221  C   LIG    1        6.516   2.683  -0.847  0.00  0.00    +0.004 A 
ATOM    222  C   LIG    1        7.882   2.873  -0.682  0.00  0.00    +0.000 A 
ATOM    223  C   LIG    1        8.362   3.593   0.404  0.00  0.00    +0.000 A 
ATOM    224  C   LIG    1        7.482   4.120   1.342  0.00  0.00    +0.000 A 
ATOM    225  C   LIG    1        6.113   3.942   1.194  0.00  0.00    +0.004 A 
ENDBRANCH 219 220
ENDBRANCH 115 219
ENDBRANCH   2 115
TORSDOF 104
