REMARK  Name = DB16353
REMARK                            x       y       z     vdW  Elec       q    Type
REMARK                         _______ _______ _______ _____ _____    ______ ____
ROOT
ATOM      1  C   LIG    1        1.515  -0.137  -0.071  0.00  0.00    +0.127 C 
ENDROOT
BRANCH   1   2
ATOM      2  C   LIG    1        2.011  -0.806  -1.357  0.00  0.00    +0.070 A 
ATOM      3  C   LIG    1        1.710  -0.423  -2.664  0.00  0.00    +0.072 A 
ATOM      4  S   LIG    1        2.495  -1.485  -3.791  0.00  0.00    -0.075 S 
ATOM      5  C   LIG    1        3.161  -2.348  -2.437  0.00  0.00    +0.115 A 
ATOM      6  N   LIG    1        2.813  -1.856  -1.270  0.00  0.00    -0.242 NA
BRANCH   5   7
ATOM      7  C   LIG    1        4.027  -3.520  -2.600  0.00  0.00    +0.044 A 
ATOM      8  S   LIG    1        4.684  -4.359  -1.217  0.00  0.00    -0.095 S 
ATOM      9  C   LIG    1        5.502  -5.501  -2.232  0.00  0.00    +0.046 A 
ATOM     10  C   LIG    1        5.276  -5.246  -3.574  0.00  0.00    +0.008 A 
ATOM     11  C   LIG    1        4.451  -4.136  -3.780  0.00  0.00    +0.018 A 
ENDBRANCH   5   7
ENDBRANCH   1   2
BRANCH   1  14
ATOM     12  C   LIG    1       -0.716   0.946   0.268  0.00  0.00    +0.234 C 
ATOM     13  O   LIG    1       -0.271   2.065   0.534  0.00  0.00    -0.274 OA
ATOM     14  N   LIG    1        0.048  -0.102  -0.091  0.00  0.00    -0.305 N 
ATOM     15  H   LIG    1       -0.411  -0.982  -0.275  0.00  0.00    +0.149 HD
BRANCH  12  16
ATOM     16  C   LIG    1       -2.236   0.687   0.307  0.00  0.00    +0.166 C 
BRANCH  16  19
ATOM     17  C   LIG    1       -3.890   0.642   2.174  0.00  0.00    +0.401 C 
ATOM     18  O   LIG    1       -4.514  -0.346   1.776  0.00  0.00    -0.226 OA
ATOM     19  N   LIG    1       -2.770   1.207   1.576  0.00  0.00    -0.270 N 
ATOM     20  H   LIG    1       -2.317   1.999   2.011  0.00  0.00    +0.153 HD
BRANCH  17  21
ATOM     21  O   LIG    1       -4.197   1.352   3.274  0.00  0.00    -0.454 OA
ATOM     22  C   LIG    1       -5.300   0.989   4.091  0.00  0.00    +0.282 C 
ENDBRANCH  17  21
ENDBRANCH  16  19
BRANCH  16  23
ATOM     23  C   LIG    1       -2.886   1.409  -0.909  0.00  0.00    +0.067 C 
BRANCH  23  24
ATOM     24  C   LIG    1       -4.350   1.091  -1.166  0.00  0.00    -0.045 A 
ATOM     25  C   LIG    1       -5.366   1.933  -0.665  0.00  0.00    +0.004 A 
ATOM     26  C   LIG    1       -6.700   1.584  -0.827  0.00  0.00    +0.000 A 
ATOM     27  C   LIG    1       -7.041   0.396  -1.462  0.00  0.00    +0.000 A 
ATOM     28  C   LIG    1       -6.051  -0.459  -1.930  0.00  0.00    +0.000 A 
ATOM     29  C   LIG    1       -4.711  -0.129  -1.777  0.00  0.00    +0.004 A 
ENDBRANCH  23  24
ENDBRANCH  16  23
ENDBRANCH  12  16
ENDBRANCH   1  14
BRANCH   1  30
ATOM     30  C   LIG    1        2.067  -0.754   1.251  0.00  0.00    +0.063 C 
BRANCH  30  31
ATOM     31  C   LIG    1        1.507  -0.121   2.521  0.00  0.00    -0.045 A 
ATOM     32  C   LIG    1        0.479  -0.754   3.224  0.00  0.00    +0.005 A 
ATOM     33  C   LIG    1       -0.069  -0.148   4.351  0.00  0.00    +0.025 A 
ATOM     34  C   LIG    1        0.409   1.095   4.776  0.00  0.00    +0.050 A 
ATOM     35  C   LIG    1        1.451   1.715   4.086  0.00  0.00    +0.025 A 
ATOM     36  C   LIG    1        1.999   1.110   2.959  0.00  0.00    +0.005 A 
BRANCH  34  37
ATOM     37  N   LIG    1       -0.124   1.734   5.901  0.00  0.00    -0.197 N 
ATOM     38  H   LIG    1        0.447   2.509   6.204  0.00  0.00    +0.176 HD
BRANCH  37  39
ATOM     39  S   LIG    1       -1.841   2.180   5.938  0.00  0.00    +0.164 S 
ATOM     40  O   LIG    1       -2.537   0.889   5.934  0.00  0.00    -0.127 OA
ATOM     41  O   LIG    1       -1.997   2.980   4.718  0.00  0.00    -0.127 OA
BRANCH  39  42
ATOM     42  O   LIG    1       -1.941   2.936   7.191  0.00  0.00    -0.238 OA
ATOM     43  H   LIG    1       -1.455   3.771   7.104  0.00  0.00    +0.246 HD
ENDBRANCH  39  42
ENDBRANCH  37  39
ENDBRANCH  34  37
ENDBRANCH  30  31
ENDBRANCH   1  30
TORSDOF 13
