REMARK  Name = DB16406
REMARK                            x       y       z     vdW  Elec       q    Type
REMARK                         _______ _______ _______ _____ _____    ______ ____
ROOT
ATOM      1  C   LIG    1       -2.367   0.939   0.089  0.00  0.00    +0.080 A 
ATOM      2  C   LIG    1       -3.052   2.161   0.221  0.00  0.00    +0.127 A 
ATOM      3  N   LIG    1       -2.430   3.351   0.405  0.00  0.00    -0.243 NA
ATOM      4  C   LIG    1       -1.080   3.306   0.480  0.00  0.00    +0.223 A 
ATOM      5  N   LIG    1       -0.315   2.192   0.394  0.00  0.00    -0.220 NA
ATOM      6  C   LIG    1       -0.955   1.002   0.203  0.00  0.00    +0.133 A 
ENDROOT
BRANCH   1   7
ATOM      7  C   LIG    1       -3.149  -0.338  -0.063  0.00  0.00    +0.204 C 
ATOM      8  O   LIG    1       -2.782  -1.379   0.489  0.00  0.00    -0.286 OA
BRANCH   7  12
ATOM      9  C   LIG    1       -7.651  -1.777  -2.605  0.00  0.00    +0.052 C 
ATOM     10  C   LIG    1       -6.416  -1.023  -2.163  0.00  0.00    -0.011 A 
ATOM     11  S   LIG    1       -5.382  -1.713  -0.943  0.00  0.00    -0.090 S 
ATOM     12  C   LIG    1       -4.306  -0.360  -0.967  0.00  0.00    +0.060 A 
ATOM     13  C   LIG    1       -4.720   0.550  -1.931  0.00  0.00    +0.022 A 
ATOM     14  C   LIG    1       -5.915   0.216  -2.595  0.00  0.00    -0.047 A 
BRANCH  14  15
ATOM     15  C   LIG    1       -6.579   1.103  -3.645  0.00  0.00    -0.009 C 
ATOM     16  C   LIG    1       -6.416   2.626  -3.435  0.00  0.00    -0.053 A 
ATOM     17  C   LIG    1       -6.723   3.183  -2.184  0.00  0.00    +0.022 A 
ATOM     18  C   LIG    1       -6.638   4.552  -1.950  0.00  0.00    +0.041 A 
ATOM     19  C   LIG    1       -6.259   5.404  -2.980  0.00  0.00    +0.020 A 
ATOM     20  C   LIG    1       -5.965   4.878  -4.234  0.00  0.00    +0.005 A 
ATOM     21 CL   LIG    1       -7.008   5.189  -0.389  0.00  0.00    -0.084 Cl
ATOM     22  C   LIG    1       -6.033   3.502  -4.480  0.00  0.00    -0.047 A 
ATOM     23  C   LIG    1       -5.685   2.958  -5.861  0.00  0.00    +0.016 C 
ATOM     24  C   LIG    1       -6.413   1.641  -6.162  0.00  0.00    -0.077 C 
ATOM     25  N   LIG    1       -6.082   0.653  -5.035  0.00  0.00    +0.387 N 
ATOM     26  H   LIG    1       -6.482  -0.249  -5.250  0.00  0.00    -0.085 HD
ATOM     27  H   LIG    1       -5.080   0.530  -4.999  0.00  0.00    -0.085 HD
ENDBRANCH  14  15
ENDBRANCH   7  12
ENDBRANCH   1   7
BRANCH   6  28
ATOM     28  N   LIG    1       -0.164  -0.162   0.104  0.00  0.00    -0.325 N 
ATOM     29  H   LIG    1       -0.627  -1.052  -0.015  0.00  0.00    +0.148 HD
BRANCH  28  30
ATOM     30  C   LIG    1        1.298  -0.151   0.128  0.00  0.00    +0.075 C 
ATOM     31  C   LIG    1        1.939   0.412  -1.145  0.00  0.00    +0.030 C 
ATOM     32  C   LIG    1        3.373  -0.146  -1.151  0.00  0.00    +0.047 C 
ATOM     33  C   LIG    1        3.329  -1.458  -0.320  0.00  0.00    +0.122 C 
ATOM     34  C   LIG    1        1.900  -1.554   0.243  0.00  0.00    +0.054 C 
BRANCH  33  35
ATOM     35  O   LIG    1        4.313  -1.411   0.696  0.00  0.00    -0.391 OA
ATOM     36  H   LIG    1        4.494  -2.308   0.989  0.00  0.00    +0.210 HD
ENDBRANCH  33  35
BRANCH  32  37
ATOM     37  C   LIG    1        3.951  -0.340  -2.570  0.00  0.00    +0.201 C 
BRANCH  37  38
ATOM     38  O   LIG    1        5.276  -0.856  -2.564  0.00  0.00    -0.225 OA
BRANCH  38  39
ATOM     39  S   LIG    1        6.528   0.179  -2.175  0.00  0.00    +0.148 S 
ATOM     40  O   LIG    1        6.576   0.325  -0.717  0.00  0.00    -0.130 OA
ATOM     41  O   LIG    1        6.455   1.347  -3.059  0.00  0.00    -0.130 OA
BRANCH  39  42
ATOM     42  N   LIG    1        7.906  -0.786  -2.664  0.00  0.00    -0.183 NA
ATOM     43  H   LIG    1        8.072  -1.620  -2.096  0.00  0.00    +0.146 HD
ATOM     44  H   LIG    1        7.986  -0.944  -3.672  0.00  0.00    +0.146 HD
ENDBRANCH  39  42
ENDBRANCH  38  39
ENDBRANCH  37  38
ENDBRANCH  32  37
ENDBRANCH  28  30
ENDBRANCH   6  28
TORSDOF 10
