REMARK  Name = DB16071
REMARK                            x       y       z     vdW  Elec       q    Type
REMARK                         _______ _______ _______ _____ _____    ______ ____
ROOT
ATOM      1  C   LIG    1        1.318  -0.134   0.055  0.00  0.00    +0.186 C 
ATOM      2  C   LIG    1        1.900  -0.024   1.488  0.00  0.00    +0.228 C 
ATOM      3  F   LIG    1        1.161  -0.730   2.349  0.00  0.00    -0.240 F 
ATOM      4  C   LIG    1        3.334  -0.589   1.472  0.00  0.00    +0.166 C 
ATOM      5  C   LIG    1        3.345  -1.880   0.617  0.00  0.00    +0.105 C 
ATOM      6  S   LIG    1        2.031  -1.670  -0.622  0.00  0.00    -0.124 S 
ENDROOT
BRANCH   1  10
ATOM      7  C   LIG    1       -2.880   0.413  -0.122  0.00  0.00    +0.123 A 
ATOM      8  C   LIG    1       -2.363  -0.918  -0.043  0.00  0.00    +0.061 A 
ATOM      9  C   LIG    1       -1.030  -1.042   0.023  0.00  0.00    +0.095 A 
ATOM     10  N   LIG    1       -0.162   0.027   0.028  0.00  0.00    -0.284 N 
ATOM     11  C   LIG    1       -0.692   1.314   0.030  0.00  0.00    +0.351 A 
ATOM     12  O   LIG    1        0.076   2.274   0.129  0.00  0.00    -0.244 OA
ATOM     13  N   LIG    1       -2.095   1.433  -0.093  0.00  0.00    -0.178 NA
BRANCH   7  14
ATOM     14  N   LIG    1       -4.208   0.561  -0.230  0.00  0.00    -0.343 N 
ATOM     15  H   LIG    1       -4.612   1.485  -0.288  0.00  0.00    +0.144 HD
ATOM     16  H   LIG    1       -4.816  -0.244  -0.256  0.00  0.00    +0.144 HD
ENDBRANCH   7  14
ENDBRANCH   1  10
BRANCH   4  17
ATOM     17  O   LIG    1        4.153   0.369   0.818  0.00  0.00    -0.388 OA
ATOM     18  H   LIG    1        5.054   0.039   0.798  0.00  0.00    +0.210 HD
ENDBRANCH   4  17
BRANCH   5  19
ATOM     19  C   LIG    1        3.108  -3.179   1.414  0.00  0.00    +0.172 C 
BRANCH  19  20
ATOM     20  O   LIG    1        4.178  -3.426   2.303  0.00  0.00    -0.394 OA
ATOM     21  H   LIG    1        4.005  -4.248   2.769  0.00  0.00    +0.209 HD
ENDBRANCH  19  20
ENDBRANCH   5  19
TORSDOF 5
