REMARK  Name = DB16305
REMARK                            x       y       z     vdW  Elec       q    Type
REMARK                         _______ _______ _______ _____ _____    ______ ____
ROOT
ATOM      1  C   LIG    1       -2.598   0.371  -2.061  0.00  0.00    +0.078 C 
ATOM      2  C   LIG    1       -3.357  -0.727  -1.261  0.00  0.00    +0.041 C 
ATOM      3  C   LIG    1       -2.527  -1.692  -0.387  0.00  0.00    +0.109 C 
ATOM      4  N   LIG    1       -1.899  -1.063   0.785  0.00  0.00    -0.299 N 
ATOM      5  C   LIG    1       -2.635  -0.671   1.862  0.00  0.00    +0.216 C 
ATOM      6  O   LIG    1       -3.840  -0.918   1.951  0.00  0.00    -0.276 OA
ATOM      7  C   LIG    1       -0.447  -0.861   0.648  0.00  0.00    +0.139 C 
ATOM      8  C   LIG    1       -0.020   0.089  -0.502  0.00  0.00    +0.176 C 
ATOM      9  C   LIG    1       -0.841   1.407  -0.536  0.00  0.00    +0.238 C 
ATOM     10  O   LIG    1       -0.416   2.366   0.117  0.00  0.00    -0.273 OA
ATOM     11  N   LIG    1       -1.996   1.467  -1.258  0.00  0.00    -0.285 N 
ATOM     12  C   LIG    1       -2.656   2.764  -1.511  0.00  0.00    +0.162 C 
ATOM     13  C   LIG    1       -3.232   2.582  -2.917  0.00  0.00    +0.034 C 
ATOM     14  C   LIG    1       -3.562   1.103  -3.019  0.00  0.00    +0.025 C 
ENDROOT
BRANCH   8  15
ATOM     15  N   LIG    1        1.413   0.387  -0.436  0.00  0.00    -0.304 N 
ATOM     16  H   LIG    1        1.646   1.325  -0.141  0.00  0.00    +0.149 HD
ATOM     17  C   LIG    1        2.395  -0.481  -0.730  0.00  0.00    +0.199 C 
ATOM     18  O   LIG    1        2.194  -1.637  -1.112  0.00  0.00    -0.278 OA
BRANCH  17  19
ATOM     19  C   LIG    1        3.832   0.081  -0.582  0.00  0.00    +0.012 C 
ATOM     20  C   LIG    1        4.311   0.731  -1.894  0.00  0.00    -0.004 C 
BRANCH  19  21
ATOM     21  N   LIG    1        4.753  -1.055  -0.202  0.00  0.00    +0.385 N 
ATOM     22  H   LIG    1        5.695  -0.711  -0.326  0.00  0.00    -0.085 HD
ATOM     23  H   LIG    1        4.604  -1.801  -0.868  0.00  0.00    -0.085 HD
ATOM     24  C   LIG    1        4.622  -1.585   1.237  0.00  0.00    -0.099 C 
ENDBRANCH  19  21
ENDBRANCH  17  19
ENDBRANCH   8  15
BRANCH  12  25
ATOM     25  C   LIG    1       -3.720   3.101  -0.441  0.00  0.00    +0.234 C 
ATOM     26  N   LIG    1       -3.695   4.360   0.034  0.00  0.00    -0.303 N 
ATOM     27  H   LIG    1       -2.901   4.935  -0.210  0.00  0.00    +0.150 HD
ATOM     28  O   LIG    1       -4.579   2.277  -0.125  0.00  0.00    -0.274 OA
BRANCH  26  29
ATOM     29  C   LIG    1       -4.607   4.940   1.031  0.00  0.00    +0.134 C 
BRANCH  29  30
ATOM     30  C   LIG    1       -4.237   6.390   1.356  0.00  0.00    -0.023 A 
ATOM     31  C   LIG    1       -4.045   7.326   0.332  0.00  0.00    +0.006 A 
ATOM     32  C   LIG    1       -3.687   8.636   0.638  0.00  0.00    +0.000 A 
ATOM     33  C   LIG    1       -3.515   9.011   1.968  0.00  0.00    +0.000 A 
ATOM     34  C   LIG    1       -3.694   8.086   2.994  0.00  0.00    +0.000 A 
ATOM     35  C   LIG    1       -4.052   6.776   2.688  0.00  0.00    +0.006 A 
ENDBRANCH  29  30
BRANCH  29  36
ATOM     36  C   LIG    1       -6.101   4.798   0.702  0.00  0.00    -0.023 A 
ATOM     37  C   LIG    1       -6.968   4.249   1.652  0.00  0.00    +0.006 A 
ATOM     38  C   LIG    1       -8.319   4.088   1.356  0.00  0.00    +0.000 A 
ATOM     39  C   LIG    1       -8.802   4.469   0.106  0.00  0.00    +0.000 A 
ATOM     40  C   LIG    1       -7.945   5.008  -0.851  0.00  0.00    +0.000 A 
ATOM     41  C   LIG    1       -6.595   5.169  -0.555  0.00  0.00    +0.006 A 
ENDBRANCH  29  36
ENDBRANCH  26  29
ENDBRANCH  12  25
BRANCH   5  42
ATOM     42  C   LIG    1       -1.946   0.108   3.007  0.00  0.00    +0.099 C 
BRANCH  42  43
ATOM     43  C   LIG    1       -2.886   0.826   4.015  0.00  0.00    -0.008 C 
ATOM     44  C   LIG    1       -2.090   1.343   5.228  0.00  0.00    +0.008 C 
ATOM     45  C   LIG    1       -3.686   1.978   3.372  0.00  0.00    +0.008 C 
ENDBRANCH  42  43
ENDBRANCH   5  42
TORSDOF 9
