REMARK  Name = DB16397
REMARK                            x       y       z     vdW  Elec       q    Type
REMARK                         _______ _______ _______ _____ _____    ______ ____
ROOT
ATOM      1  C   LIG    1        1.439  -0.097   0.303  0.00  0.00    +0.030 C 
ATOM      2  C   LIG    1        2.264   0.938   0.554  0.00  0.00    +0.017 C 
ENDROOT
BRANCH   1   6
ATOM      3  N   LIG    1       -2.002   0.671   0.147  0.00  0.00    -0.284 N 
ATOM      4  H   LIG    1       -2.765   1.330   0.207  0.00  0.00    +0.188 HD
ATOM      5  N   LIG    1       -0.730   1.040   0.330  0.00  0.00    -0.175 NA
ATOM      6  C   LIG    1       -0.009  -0.057   0.183  0.00  0.00    +0.085 A 
ATOM      7  C   LIG    1       -0.849  -1.149  -0.100  0.00  0.00    +0.048 A 
ATOM      8  C   LIG    1       -2.140  -0.660  -0.122  0.00  0.00    +0.105 A 
ENDBRANCH   1   6
BRANCH   2   9
ATOM      9  C   LIG    1        3.711   0.894   0.677  0.00  0.00    +0.012 A 
ATOM     10  S   LIG    1        4.636   2.347   0.922  0.00  0.00    -0.097 S 
ATOM     11  C   LIG    1        6.114   1.442   0.953  0.00  0.00    +0.046 A 
ATOM     12  C   LIG    1        5.895   0.083   0.785  0.00  0.00    +0.008 A 
ATOM     13  C   LIG    1        4.540  -0.227   0.629  0.00  0.00    +0.015 A 
ENDBRANCH   2   9
TORSDOF 2
