REMARK  Name = DB16703
REMARK                            x       y       z     vdW  Elec       q    Type
REMARK                         _______ _______ _______ _____ _____    ______ ____
ROOT
ATOM      1  C   LIG    1        2.069   9.711  -0.055  0.00  0.00    +0.001 A 
ATOM      2  C   LIG    1        2.706   8.486  -0.241  0.00  0.00    +0.013 A 
ATOM      3  C   LIG    1        1.985   7.271  -0.077  0.00  0.00    +0.040 A 
ATOM      4  C   LIG    1        2.533   5.964  -0.238  0.00  0.00    +0.135 A 
ATOM      5  N   LIG    1        1.774   4.855  -0.072  0.00  0.00    -0.212 NA
ATOM      6  C   LIG    1        0.469   5.009   0.269  0.00  0.00    +0.162 A 
ATOM      7  N   LIG    1       -0.148   6.208   0.451  0.00  0.00    -0.227 NA
ATOM      8  C   LIG    1        0.600   7.334   0.278  0.00  0.00    +0.077 A 
ATOM      9  C   LIG    1       -0.016   8.596   0.457  0.00  0.00    +0.028 A 
ATOM     10  C   LIG    1        0.722   9.765   0.290  0.00  0.00    +0.002 A 
ENDROOT
BRANCH   6  11
ATOM     11  C   LIG    1       -0.341   3.755   0.464  0.00  0.00    +0.023 A 
ATOM     12  C   LIG    1       -1.684   3.801   0.876  0.00  0.00    +0.012 A 
ATOM     13  C   LIG    1       -2.425   2.635   1.060  0.00  0.00    +0.004 A 
ATOM     14  C   LIG    1       -1.838   1.392   0.836  0.00  0.00    +0.046 A 
ATOM     15  C   LIG    1       -0.509   1.299   0.426  0.00  0.00    +0.122 A 
ATOM     16  C   LIG    1        0.222   2.484   0.243  0.00  0.00    +0.057 A 
BRANCH  15  17
ATOM     17  O   LIG    1        0.003   0.030   0.228  0.00  0.00    -0.483 OA
BRANCH  17  18
ATOM     18  C   LIG    1        1.368  -0.112  -0.173  0.00  0.00    +0.324 C 
BRANCH  18  19
ATOM     19  C   LIG    1        1.728  -1.598  -0.283  0.00  0.00    +0.251 C 
ATOM     20  N   LIG    1        2.995  -1.858  -0.655  0.00  0.00    -0.310 N 
ATOM     21  H   LIG    1        3.601  -1.077  -0.861  0.00  0.00    +0.149 HD
ATOM     22  O   LIG    1        0.897  -2.476  -0.045  0.00  0.00    -0.272 OA
BRANCH  20  23
ATOM     23  C   LIG    1        3.583  -3.187  -0.833  0.00  0.00    +0.067 C 
ATOM     24  C   LIG    1        4.881  -3.094  -1.651  0.00  0.00    +0.027 C 
ATOM     25  C   LIG    1        3.807  -3.922   0.504  0.00  0.00    +0.027 C 
ENDBRANCH  20  23
ENDBRANCH  18  19
ENDBRANCH  17  18
ENDBRANCH  15  17
ENDBRANCH   6  11
BRANCH   4  26
ATOM     26  N   LIG    1        3.883   5.798  -0.608  0.00  0.00    -0.299 N 
ATOM     27  H   LIG    1        4.338   6.670  -0.833  0.00  0.00    +0.154 HD
BRANCH  26  28
ATOM     28  C   LIG    1        4.731   4.682  -0.756  0.00  0.00    +0.033 A 
ATOM     29  C   LIG    1        5.941   4.902  -1.421  0.00  0.00    +0.034 A 
ATOM     30  C   LIG    1        6.826   3.830  -1.608  0.00  0.00    +0.021 A 
ATOM     31  C   LIG    1        8.101   3.640  -2.218  0.00  0.00    +0.142 A 
ATOM     32  N   LIG    1        8.503   2.399  -2.115  0.00  0.00    -0.181 NA
ATOM     33  N   LIG    1        7.542   1.732  -1.450  0.00  0.00    -0.277 N 
ATOM     34  H   LIG    1        7.649   0.747  -1.255  0.00  0.00    +0.189 HD
ATOM     35  C   LIG    1        6.484   2.552  -1.110  0.00  0.00    +0.066 A 
ATOM     36  C   LIG    1        5.289   2.313  -0.429  0.00  0.00    +0.029 A 
ATOM     37  C   LIG    1        4.431   3.402  -0.262  0.00  0.00    +0.025 A 
ENDBRANCH  26  28
ENDBRANCH   4  26
TORSDOF 7
