REMARK  Name = DB16012
REMARK                            x       y       z     vdW  Elec       q    Type
REMARK                         _______ _______ _______ _____ _____    ______ ____
ROOT
ATOM      1  C   LIG    1       -4.596  -0.319   0.671  0.00  0.00    +0.197 C 
ATOM      2  O   LIG    1       -5.437   0.426   0.165  0.00  0.00    -0.287 OA
ENDROOT
BRANCH   1   7
ATOM      3  C   LIG    1       -7.217  -4.356   1.944  0.00  0.00    +0.047 A 
ATOM      4  C   LIG    1       -6.250  -3.348   1.966  0.00  0.00    +0.136 A 
ATOM      5  O   LIG    1       -5.268  -3.209   2.897  0.00  0.00    -0.459 OA
ATOM      6  C   LIG    1       -4.558  -2.093   2.562  0.00  0.00    +0.117 A 
ATOM      7  C   LIG    1       -5.051  -1.521   1.379  0.00  0.00    +0.071 A 
ATOM      8  C   LIG    1       -6.184  -2.322   1.002  0.00  0.00    +0.032 A 
ATOM      9  C   LIG    1       -7.140  -2.314  -0.030  0.00  0.00    +0.027 A 
ATOM     10  C   LIG    1       -8.126  -3.315  -0.079  0.00  0.00    +0.060 A 
ATOM     11  C   LIG    1       -8.148  -4.318   0.907  0.00  0.00    +0.018 A 
BRANCH  10  12
ATOM     12  C   LIG    1       -9.134  -3.284  -1.193  0.00  0.00    +0.339 C 
ATOM     13  O   LIG    1       -9.148  -2.415  -2.070  0.00  0.00    -0.245 OA
BRANCH  12  14
ATOM     14  O   LIG    1      -10.030  -4.309  -1.139  0.00  0.00    -0.458 OA
BRANCH  14  15
ATOM     15  C   LIG    1      -11.060  -4.477  -2.115  0.00  0.00    +0.171 C 
ATOM     16  C   LIG    1      -10.499  -5.091  -3.413  0.00  0.00    +0.052 C 
ATOM     17  C   LIG    1      -12.151  -5.361  -1.493  0.00  0.00    +0.052 C 
ENDBRANCH  14  15
ENDBRANCH  12  14
ENDBRANCH  10  12
BRANCH   6  18
ATOM     18  C   LIG    1       -3.467  -1.729   3.560  0.00  0.00    +0.075 C 
BRANCH  18  19
ATOM     19  C   LIG    1       -3.581  -0.295   4.119  0.00  0.00    +0.007 C 
BRANCH  19  20
ATOM     20  C   LIG    1       -4.903  -0.007   4.857  0.00  0.00    -0.003 C 
ATOM     21  C   LIG    1       -4.968   1.416   5.428  0.00  0.00    +0.004 C 
ENDBRANCH  19  20
ENDBRANCH  18  19
ENDBRANCH   6  18
ENDBRANCH   1   7
BRANCH   1  22
ATOM     22  C   LIG    1       -3.132  -0.013   0.561  0.00  0.00    +0.022 A 
ATOM     23  C   LIG    1       -2.169  -1.032   0.580  0.00  0.00    +0.012 A 
ATOM     24  C   LIG    1       -0.818  -0.727   0.441  0.00  0.00    +0.004 A 
ATOM     25  C   LIG    1       -0.415   0.597   0.264  0.00  0.00    -0.047 A 
ATOM     26  C   LIG    1       -1.369   1.615   0.221  0.00  0.00    +0.004 A 
ATOM     27  C   LIG    1       -2.720   1.310   0.357  0.00  0.00    +0.012 A 
BRANCH  25  28
ATOM     28  C   LIG    1        1.063   0.931   0.108  0.00  0.00    +0.033 C 
BRANCH  28  29
ATOM     29  C   LIG    1        1.597   0.731  -1.324  0.00  0.00    -0.014 C 
BRANCH  29  30
ATOM     30  C   LIG    1        0.895   1.622  -2.370  0.00  0.00    -0.079 C 
BRANCH  30  31
ATOM     31  N   LIG    1        1.621   1.563  -3.738  0.00  0.00    +0.380 N 
ATOM     32  H   LIG    1        2.612   1.598  -3.543  0.00  0.00    -0.082 HD
BRANCH  31  33
ATOM     33  C   LIG    1        1.362   0.232  -4.488  0.00  0.00    -0.079 C 
BRANCH  33  34
ATOM     34  C   LIG    1        2.523  -0.082  -5.451  0.00  0.00    -0.019 C 
BRANCH  34  35
ATOM     35  C   LIG    1        2.340  -1.431  -6.167  0.00  0.00    -0.005 C 
ATOM     36  C   LIG    1        3.509  -1.773  -7.102  0.00  0.00    +0.004 C 
ENDBRANCH  34  35
ENDBRANCH  33  34
ENDBRANCH  31  33
BRANCH  31  37
ATOM     37  C   LIG    1        1.293   2.794  -4.620  0.00  0.00    -0.079 C 
BRANCH  37  38
ATOM     38  C   LIG    1        2.097   4.028  -4.169  0.00  0.00    -0.019 C 
BRANCH  38  39
ATOM     39  C   LIG    1        1.845   5.247  -5.072  0.00  0.00    -0.005 C 
ATOM     40  C   LIG    1        2.644   6.486  -4.643  0.00  0.00    +0.004 C 
ENDBRANCH  38  39
ENDBRANCH  37  38
ENDBRANCH  31  37
ENDBRANCH  30  31
ENDBRANCH  29  30
ENDBRANCH  28  29
ENDBRANCH  25  28
ENDBRANCH   1  22
TORSDOF 18
