REMARK  Name = DB16895
REMARK                            x       y       z     vdW  Elec       q    Type
REMARK                         _______ _______ _______ _____ _____    ______ ____
ROOT
ATOM      1  N   LIG    1       -2.466  -1.522   0.496  0.00  0.00    +0.382 N 
ATOM      2  H   LIG    1       -2.133  -2.215   1.152  0.00  0.00    -0.081 HD
ATOM      3  C   LIG    1       -1.877  -1.874  -0.894  0.00  0.00    -0.078 C 
ATOM      4  C   LIG    1       -0.340  -1.807  -0.813  0.00  0.00    -0.017 C 
ATOM      5  C   LIG    1        0.141  -0.409  -0.373  0.00  0.00    -0.032 C 
ATOM      6  C   LIG    1       -0.449  -0.124   1.028  0.00  0.00    -0.017 C 
ATOM      7  C   LIG    1       -1.989  -0.137   0.999  0.00  0.00    -0.078 C 
ENDROOT
BRANCH   1   8
ATOM      8  C   LIG    1       -4.011  -1.579   0.476  0.00  0.00    -0.043 C 
BRANCH   8  12
ATOM      9  C   LIG    1       -5.648  -5.538  -0.223  0.00  0.00    +0.059 A 
ATOM     10  C   LIG    1       -5.660  -4.556  -1.233  0.00  0.00    +0.015 A 
ATOM     11  C   LIG    1       -5.137  -3.286  -1.011  0.00  0.00    +0.002 A 
ATOM     12  C   LIG    1       -4.582  -2.967   0.228  0.00  0.00    -0.064 A 
ATOM     13  C   LIG    1       -4.566  -3.919   1.246  0.00  0.00    +0.002 A 
ATOM     14  C   LIG    1       -5.091  -5.188   1.022  0.00  0.00    +0.015 A 
BRANCH   9  15
ATOM     15  C   LIG    1       -6.215  -6.923  -0.468  0.00  0.00    +0.337 C 
ATOM     16  O   LIG    1       -6.679  -7.194  -1.602  0.00  0.00    -0.245 OA
BRANCH  15  17
ATOM     17  O   LIG    1       -6.202  -7.756   0.469  0.00  0.00    -0.477 OA
ATOM     18  H   LIG    1       -5.847  -7.517   1.303  0.00  0.00    +0.295 HD
ENDBRANCH  15  17
ENDBRANCH   9  15
ENDBRANCH   8  12
ENDBRANCH   1   8
BRANCH   5  19
ATOM     19  C   LIG    1        1.685  -0.326  -0.400  0.00  0.00    -0.079 C 
BRANCH  19  20
ATOM     20  N   LIG    1        2.155   1.128  -0.230  0.00  0.00    +0.381 N 
ATOM     21  H   LIG    1        1.788   1.493   0.638  0.00  0.00    -0.085 HD
ATOM     22  H   LIG    1        1.783   1.689  -0.984  0.00  0.00    -0.085 HD
BRANCH  20  23
ATOM     23  C   LIG    1        3.683   1.266  -0.213  0.00  0.00    -0.064 C 
ATOM     24  C   LIG    1        4.436   1.102   1.091  0.00  0.00    -0.009 C 
ATOM     25  C   LIG    1        4.300   2.470   0.461  0.00  0.00    +0.003 C 
BRANCH  25  26
ATOM     26  C   LIG    1        5.523   3.189  -0.078  0.00  0.00    -0.046 A 
ATOM     27  C   LIG    1        5.539   3.639  -1.401  0.00  0.00    +0.004 A 
ATOM     28  C   LIG    1        6.653   4.315  -1.890  0.00  0.00    +0.000 A 
ATOM     29  C   LIG    1        7.744   4.544  -1.053  0.00  0.00    +0.000 A 
ATOM     30  C   LIG    1        7.729   4.106   0.270  0.00  0.00    +0.000 A 
ATOM     31  C   LIG    1        6.615   3.429   0.760  0.00  0.00    +0.004 A 
ENDBRANCH  25  26
ENDBRANCH  20  23
ENDBRANCH  19  20
ENDBRANCH   5  19
TORSDOF 8
