REMARK  Name = DB16843
REMARK                            x       y       z     vdW  Elec       q    Type
REMARK                         _______ _______ _______ _____ _____    ______ ____
ROOT
ATOM      1  C   LIG    1        1.478   0.143  -0.472  0.00  0.00    +0.050 A 
ATOM      2  C   LIG    1        2.149  -1.072  -0.328  0.00  0.00    +0.033 A 
ATOM      3  C   LIG    1        3.538  -1.121  -0.154  0.00  0.00    -0.011 A 
ATOM      4  C   LIG    1        4.250   0.086  -0.125  0.00  0.00    +0.035 A 
ATOM      5  C   LIG    1        3.595   1.313  -0.282  0.00  0.00    +0.050 A 
ATOM      6  C   LIG    1        2.208   1.335  -0.451  0.00  0.00    +0.050 A 
ENDROOT
BRANCH   5   7
ATOM      7  N   LIG    1        4.327   2.518  -0.195  0.00  0.00    -0.298 N 
ATOM      8  C   LIG    1        5.585   2.744  -0.720  0.00  0.00    +0.205 A 
ATOM      9  N   LIG    1        6.052   3.949  -0.528  0.00  0.00    -0.235 NA
ATOM     10  C   LIG    1        5.064   4.580   0.174  0.00  0.00    +0.090 A 
ATOM     11  C   LIG    1        5.037   5.897   0.654  0.00  0.00    +0.038 A 
ATOM     12  C   LIG    1        3.914   6.333   1.367  0.00  0.00    -0.013 A 
ATOM     13  C   LIG    1        2.844   5.457   1.590  0.00  0.00    +0.011 A 
ATOM     14  C   LIG    1        2.837   4.141   1.125  0.00  0.00    +0.029 A 
ATOM     15  C   LIG    1        3.962   3.716   0.407  0.00  0.00    +0.073 A 
BRANCH  12  16
ATOM     16  C   LIG    1        3.858   7.732   1.897  0.00  0.00    +0.020 A 
ATOM     17  C   LIG    1        4.864   8.718   1.897  0.00  0.00    +0.142 A 
ATOM     18  N   LIG    1        4.494   9.854   2.444  0.00  0.00    -0.179 NA
ATOM     19  N   LIG    1        3.230   9.642   2.822  0.00  0.00    -0.274 N 
ATOM     20  C   LIG    1        2.490  10.710   3.472  0.00  0.00    +0.172 C 
ATOM     21  C   LIG    1        2.795   8.380   2.514  0.00  0.00    +0.116 A 
ENDBRANCH  12  16
ENDBRANCH   5   7
BRANCH   3  22
ATOM     22  C   LIG    1        4.243  -2.422   0.018  0.00  0.00    +0.018 A 
ATOM     23  C   LIG    1        5.175  -2.582   1.055  0.00  0.00    +0.014 A 
ATOM     24  C   LIG    1        5.841  -3.793   1.241  0.00  0.00    +0.039 A 
ATOM     25  C   LIG    1        5.587  -4.865   0.390  0.00  0.00    +0.126 A 
ATOM     26  C   LIG    1        4.669  -4.724  -0.648  0.00  0.00    +0.077 A 
ATOM     27  F   LIG    1        6.231  -6.040   0.569  0.00  0.00    -0.205 F 
ATOM     28  C   LIG    1        4.002  -3.512  -0.836  0.00  0.00    +0.134 A 
ATOM     29  F   LIG    1        3.129  -3.404  -1.866  0.00  0.00    -0.205 F 
ENDBRANCH   3  22
BRANCH   1  30
ATOM     30  N   LIG    1        0.087   0.126  -0.636  0.00  0.00    -0.220 N 
ATOM     31  H   LIG    1       -0.332  -0.791  -0.685  0.00  0.00    +0.173 HD
BRANCH  30  32
ATOM     32  S   LIG    1       -0.951   1.381   0.068  0.00  0.00    +0.046 S 
ATOM     33  O   LIG    1       -0.810   2.576  -0.771  0.00  0.00    -0.155 OA
ATOM     34  O   LIG    1       -0.637   1.438   1.500  0.00  0.00    -0.155 OA
BRANCH  32  35
ATOM     35  C   LIG    1       -2.676   0.636  -0.160  0.00  0.00    +0.151 C 
ATOM     36  C   LIG    1       -3.811   1.596  -0.414  0.00  0.00    +0.030 C 
ATOM     37  C   LIG    1       -3.280   0.726  -1.539  0.00  0.00    +0.030 C 
ENDBRANCH  32  35
ENDBRANCH  30  32
ENDBRANCH   1  30
TORSDOF 6
