REMARK  Name = DB16320
REMARK                            x       y       z     vdW  Elec       q    Type
REMARK                         _______ _______ _______ _____ _____    ______ ____
ROOT
ATOM      1  C   LIG    1        1.968  -2.125  -0.944  0.00  0.00    +0.000 A 
ATOM      2  C   LIG    1        1.047  -2.981  -0.337  0.00  0.00    +0.010 A 
ATOM      3  C   LIG    1        0.354  -3.917  -1.100  0.00  0.00    +0.009 A 
ATOM      4  C   LIG    1        0.573  -4.025  -2.481  0.00  0.00    -0.018 A 
ATOM      5  C   LIG    1        1.509  -3.167  -3.075  0.00  0.00    +0.009 A 
ATOM      6  C   LIG    1        2.203  -2.229  -2.315  0.00  0.00    +0.010 A 
ENDROOT
BRANCH   4   7
ATOM      7  C   LIG    1       -0.167  -5.036  -3.299  0.00  0.00    -0.016 A 
ATOM      8  C   LIG    1        0.424  -5.629  -4.426  0.00  0.00    +0.008 A 
ATOM      9  C   LIG    1       -0.262  -6.573  -5.189  0.00  0.00    +0.002 A 
ATOM     10  C   LIG    1       -1.558  -6.944  -4.840  0.00  0.00    +0.027 A 
ATOM     11  C   LIG    1       -2.168  -6.371  -3.723  0.00  0.00    +0.088 A 
ATOM     12  C   LIG    1       -1.475  -5.424  -2.963  0.00  0.00    +0.035 A 
BRANCH  11  13
ATOM     13  S   LIG    1       -3.837  -6.838  -3.272  0.00  0.00    -0.006 S 
ATOM     14  O   LIG    1       -3.985  -6.612  -1.830  0.00  0.00    -0.170 OA
ATOM     15  O   LIG    1       -4.094  -8.166  -3.842  0.00  0.00    -0.170 OA
ATOM     16  C   LIG    1       -4.898  -5.577  -4.189  0.00  0.00    +0.200 C 
ENDBRANCH  11  13
ENDBRANCH   4   7
BRANCH   1  18
ATOM     17  N   LIG    1        2.227  -0.220   0.754  0.00  0.00    -0.252 N 
ATOM     18  C   LIG    1        2.740  -1.126  -0.152  0.00  0.00    +0.070 A 
ATOM     19  C   LIG    1        4.098  -0.847  -0.150  0.00  0.00    +0.062 A 
ATOM     20  C   LIG    1        4.309   0.195   0.762  0.00  0.00    +0.166 A 
ATOM     21  N   LIG    1        3.167   0.572   1.294  0.00  0.00    -0.166 NA
BRANCH  20  22
ATOM     22  C   LIG    1        5.604   0.885   1.150  0.00  0.00    +0.436 C 
ATOM     23  F   LIG    1        5.609   2.156   0.747  0.00  0.00    -0.164 F 
ATOM     24  F   LIG    1        6.660   0.284   0.601  0.00  0.00    -0.164 F 
ATOM     25  F   LIG    1        5.781   0.875   2.471  0.00  0.00    -0.164 F 
ENDBRANCH  20  22
BRANCH  17  26
ATOM     26  C   LIG    1        0.828   0.043   1.097  0.00  0.00    +0.264 C 
BRANCH  26  27
ATOM     27  C   LIG    1        0.192   1.178   0.280  0.00  0.00    +0.329 C 
ATOM     28  O   LIG    1        0.805   1.794  -0.597  0.00  0.00    -0.249 OA
BRANCH  27  29
ATOM     29  O   LIG    1       -1.088   1.390   0.643  0.00  0.00    -0.464 OA
BRANCH  29  31
ATOM     30  C   LIG    1       -3.291   2.370   0.569  0.00  0.00    +0.048 C 
ATOM     31  C   LIG    1       -1.863   2.402   0.014  0.00  0.00    +0.229 C 
ENDBRANCH  29  31
ENDBRANCH  27  29
ENDBRANCH  26  27
ENDBRANCH  17  26
ENDBRANCH   1  18
TORSDOF 8
