REMARK  Name = DB16085
REMARK                            x       y       z     vdW  Elec       q    Type
REMARK                         _______ _______ _______ _____ _____    ______ ____
ROOT
ATOM      1  N   LIG    1        1.788  -0.010  -0.265  0.00  0.00    -0.268 N 
ATOM      2  C   LIG    1        2.480  -0.355  -1.386  0.00  0.00    +0.220 C 
ATOM      3  O   LIG    1        2.109  -1.058  -2.328  0.00  0.00    -0.275 OA
ATOM      4  C   LIG    1        3.840   0.333  -1.313  0.00  0.00    +0.098 C 
ATOM      5  C   LIG    1        3.970   0.819   0.107  0.00  0.00    +0.032 C 
ATOM      6  C   LIG    1        2.538   0.914   0.609  0.00  0.00    +0.082 C 
ENDROOT
BRANCH   1  10
ATOM      7  C   LIG    1       -2.347  -0.661   0.050  0.00  0.00    -0.019 A 
ATOM      8  C   LIG    1       -1.844   0.642  -0.035  0.00  0.00    +0.008 A 
ATOM      9  C   LIG    1       -0.474   0.858  -0.146  0.00  0.00    +0.024 A 
ATOM     10  C   LIG    1        0.402  -0.231  -0.172  0.00  0.00    +0.037 A 
ATOM     11  C   LIG    1       -0.097  -1.536  -0.093  0.00  0.00    +0.024 A 
ATOM     12  C   LIG    1       -1.468  -1.748   0.017  0.00  0.00    +0.008 A 
BRANCH   7  13
ATOM     13  C   LIG    1       -3.852  -0.905   0.163  0.00  0.00    +0.145 C 
BRANCH  13  14
ATOM     14  O   LIG    1       -4.440  -0.145   1.203  0.00  0.00    -0.387 OA
ATOM     15  H   LIG    1       -5.394  -0.237   1.145  0.00  0.00    +0.210 HD
ENDBRANCH  13  14
BRANCH  13  16
ATOM     16  C   LIG    1       -4.615  -0.611  -1.150  0.00  0.00    +0.036 C 
BRANCH  16  17
ATOM     17  C   LIG    1       -4.200  -1.509  -2.333  0.00  0.00    +0.003 C 
BRANCH  17  18
ATOM     18  C   LIG    1       -5.012  -1.228  -3.611  0.00  0.00    -0.000 C 
BRANCH  18  20
ATOM     19  C   LIG    1       -5.411  -1.846  -6.065  0.00  0.00    +0.004 C 
ATOM     20  C   LIG    1       -4.602  -2.127  -4.791  0.00  0.00    -0.003 C 
ENDBRANCH  18  20
ENDBRANCH  17  18
ENDBRANCH  16  17
ENDBRANCH  13  16
ENDBRANCH   7  13
ENDBRANCH   1  10
BRANCH   6  21
ATOM     21  C   LIG    1        2.429   0.629   2.130  0.00  0.00    +0.023 C 
BRANCH  21  22
ATOM     22  C   LIG    1        1.122   1.100   2.804  0.00  0.00    +0.007 C 
BRANCH  22  23
ATOM     23  C   LIG    1        1.127   0.996   4.342  0.00  0.00    +0.042 C 
BRANCH  23  24
ATOM     24  C   LIG    1        1.280  -0.429   4.839  0.00  0.00    -0.009 A 
ATOM     25  S   LIG    1        2.813  -1.040   5.398  0.00  0.00    -0.087 S 
ATOM     26  C   LIG    1        2.157  -2.623   5.734  0.00  0.00    +0.096 A 
ATOM     27  C   LIG    1        0.803  -2.651   5.423  0.00  0.00    +0.023 A 
ATOM     28  C   LIG    1        0.322  -1.435   4.931  0.00  0.00    +0.012 A 
BRANCH  26  29
ATOM     29  C   LIG    1        2.976  -3.718   6.262  0.00  0.00    +0.346 C 
ATOM     30  O   LIG    1        2.519  -4.841   6.489  0.00  0.00    -0.244 OA
BRANCH  29  31
ATOM     31  O   LIG    1        4.271  -3.351   6.469  0.00  0.00    -0.458 OA
BRANCH  31  32
ATOM     32  C   LIG    1        5.252  -4.267   6.956  0.00  0.00    +0.171 C 
ATOM     33  C   LIG    1        5.753  -5.188   5.826  0.00  0.00    +0.052 C 
ATOM     34  C   LIG    1        6.393  -3.444   7.570  0.00  0.00    +0.052 C 
ENDBRANCH  31  32
ENDBRANCH  29  31
ENDBRANCH  26  29
ENDBRANCH  23  24
ENDBRANCH  22  23
ENDBRANCH  21  22
ENDBRANCH   6  21
TORSDOF 14
