REMARK  Name = DB16848
REMARK                            x       y       z     vdW  Elec       q    Type
REMARK                         _______ _______ _______ _____ _____    ______ ____
ROOT
ATOM      1  N   LIG    1        0.176   0.153  -0.247  0.00  0.00    +0.381 N 
ATOM      2  H   LIG    1       -0.417  -0.489  -0.753  0.00  0.00    -0.085 HD
ATOM      3  H   LIG    1        0.168  -0.120   0.726  0.00  0.00    -0.085 HD
ENDROOT
BRANCH   1   4
ATOM      4  C   LIG    1       -0.407   1.567  -0.366  0.00  0.00    -0.064 C 
ATOM      5  C   LIG    1       -0.182   2.568   0.749  0.00  0.00    -0.009 C 
ATOM      6  C   LIG    1       -1.552   1.963   0.536  0.00  0.00    +0.003 C 
BRANCH   6   7
ATOM      7  C   LIG    1       -2.708   2.833   0.079  0.00  0.00    -0.046 A 
ATOM      8  C   LIG    1       -3.420   2.494  -1.074  0.00  0.00    +0.004 A 
ATOM      9  C   LIG    1       -4.492   3.283  -1.485  0.00  0.00    +0.000 A 
ATOM     10  C   LIG    1       -4.851   4.403  -0.737  0.00  0.00    +0.000 A 
ATOM     11  C   LIG    1       -4.150   4.740   0.418  0.00  0.00    +0.000 A 
ATOM     12  C   LIG    1       -3.078   3.952   0.830  0.00  0.00    +0.004 A 
ENDBRANCH   6   7
ENDBRANCH   1   4
BRANCH   1  13
ATOM     13  C   LIG    1        1.613   0.047  -0.787  0.00  0.00    -0.079 C 
BRANCH  13  14
ATOM     14  C   LIG    1        2.167  -1.388  -0.618  0.00  0.00    -0.028 C 
ATOM     15  C   LIG    1        3.566  -1.504  -1.261  0.00  0.00    -0.000 C 
ATOM     16  C   LIG    1        4.084  -2.963  -1.231  0.00  0.00    -0.016 C 
ATOM     17  C   LIG    1        4.071  -3.594   0.193  0.00  0.00    -0.075 C 
ATOM     18  C   LIG    1        2.756  -3.302   0.975  0.00  0.00    -0.016 C 
ATOM     19  C   LIG    1        2.282  -1.832   0.862  0.00  0.00    -0.000 C 
BRANCH  17  20
ATOM     20  N   LIG    1        5.227  -2.953   0.987  0.00  0.00    +0.380 N 
ATOM     21  H   LIG    1        5.267  -3.339   1.920  0.00  0.00    -0.090 HD
ATOM     22  H   LIG    1        6.108  -3.132   0.525  0.00  0.00    -0.090 HD
ATOM     23  H   LIG    1        5.092  -1.955   1.054  0.00  0.00    -0.090 HD
ENDBRANCH  17  20
ENDBRANCH  13  14
ENDBRANCH   1  13
TORSDOF 5
