REMARK  Name = DB16117
REMARK                            x       y       z     vdW  Elec       q    Type
REMARK                         _______ _______ _______ _____ _____    ______ ____
ROOT
ATOM      1  C   LIG    1       -1.097   3.267  -0.588  0.00  0.00    +0.217 C 
ATOM      2  C   LIG    1       -1.262   3.860  -2.040  0.00  0.00    +0.112 C 
ATOM      3  C   LIG    1       -2.428   4.935  -1.992  0.00  0.00    +0.057 C 
ATOM      4  C   LIG    1       -3.774   4.260  -1.508  0.00  0.00    +0.015 C 
ATOM      5  C   LIG    1       -3.569   2.744  -1.178  0.00  0.00    -0.027 C 
ATOM      6  C   LIG    1       -3.072   2.130  -2.551  0.00  0.00    +0.009 C 
ATOM      7  C   LIG    1       -4.784   1.921  -0.572  0.00  0.00    -0.057 C 
ATOM      8  N   LIG    1       -5.254   2.460   0.817  0.00  0.00    +0.382 N 
ATOM      9  H   LIG    1       -5.897   1.762   1.161  0.00  0.00    -0.081 HD
ATOM     10  C   LIG    1       -4.120   2.547   1.870  0.00  0.00    -0.077 C 
ATOM     11  C   LIG    1       -2.886   3.243   1.264  0.00  0.00    -0.003 C 
ATOM     12  C   LIG    1       -4.442   0.395  -0.338  0.00  0.00    +0.021 C 
ATOM     13  C   LIG    1       -2.963   0.130  -0.006  0.00  0.00    -0.041 A 
ATOM     14  C   LIG    1       -2.392  -1.149   0.090  0.00  0.00    +0.008 A 
ATOM     15  C   LIG    1       -0.996  -1.320   0.093  0.00  0.00    +0.050 A 
ATOM     16  C   LIG    1       -0.146  -0.215  -0.070  0.00  0.00    +0.173 A 
ATOM     17  C   LIG    1       -0.725   1.055  -0.127  0.00  0.00    +0.167 A 
ATOM     18  C   LIG    1       -2.079   1.209   0.009  0.00  0.00    +0.011 A 
ATOM     19  C   LIG    1       -1.724   2.745  -3.021  0.00  0.00    +0.039 C 
ATOM     20  C   LIG    1       -2.439   2.652  -0.108  0.00  0.00    +0.042 C 
ATOM     21  O   LIG    1       -0.097   2.234  -0.455  0.00  0.00    -0.481 OA
ENDROOT
BRANCH   3  22
ATOM     22  C   LIG    1       -2.588   6.019  -3.157  0.00  0.00    +0.074 C 
ATOM     23  C   LIG    1       -3.647   5.596  -4.220  0.00  0.00    +0.042 C 
BRANCH  22  24
ATOM     24  C   LIG    1       -2.821   7.508  -2.628  0.00  0.00    -0.009 C 
ATOM     25  C   LIG    1       -3.115   8.498  -3.792  0.00  0.00    +0.013 C 
ATOM     26  C   LIG    1       -4.023   7.586  -1.651  0.00  0.00    +0.013 C 
ATOM     27  C   LIG    1       -1.574   8.069  -1.880  0.00  0.00    +0.013 C 
ENDBRANCH  22  24
BRANCH  22  28
ATOM     28  O   LIG    1       -1.408   6.049  -3.946  0.00  0.00    -0.388 OA
ATOM     29  H   LIG    1       -1.520   6.705  -4.637  0.00  0.00    +0.210 HD
ENDBRANCH  22  28
ENDBRANCH   3  22
BRANCH   2  30
ATOM     30  O   LIG    1       -0.002   4.496  -2.303  0.00  0.00    -0.373 OA
ATOM     31  C   LIG    1        1.026   3.751  -2.950  0.00  0.00    +0.194 C 
ENDBRANCH   2  30
BRANCH   8  32
ATOM     32  C   LIG    1       -6.110   3.749   0.757  0.00  0.00    -0.075 C 
BRANCH  32  33
ATOM     33  C   LIG    1       -7.332   3.586   1.676  0.00  0.00    -0.028 C 
ATOM     34  C   LIG    1       -7.253   3.950   3.139  0.00  0.00    +0.002 C 
ATOM     35  C   LIG    1       -8.047   4.815   2.177  0.00  0.00    +0.002 C 
ENDBRANCH  32  33
ENDBRANCH   8  32
BRANCH  16  36
ATOM     36  O   LIG    1        1.217  -0.366  -0.193  0.00  0.00    -0.422 OA
BRANCH  36  37
ATOM     37  C   LIG    1        1.800  -0.209  -1.416  0.00  0.00    +0.312 C 
ATOM     38  O   LIG    1        1.213  -0.018  -2.486  0.00  0.00    -0.250 OA
BRANCH  37  39
ATOM     39  C   LIG    1        3.330  -0.246  -1.325  0.00  0.00    +0.121 C 
BRANCH  39  40
ATOM     40  C   LIG    1        4.052   0.485  -2.478  0.00  0.00    +0.012 C 
BRANCH  40  41
ATOM     41  C   LIG    1        5.583   0.534  -2.316  0.00  0.00    +0.012 C 
BRANCH  41  42
ATOM     42  C   LIG    1        6.265  -0.860  -2.376  0.00  0.00    +0.120 C 
BRANCH  42  43
ATOM     43  C   LIG    1        7.813  -0.830  -2.394  0.00  0.00    +0.305 C 
ATOM     44  O   LIG    1        8.381  -1.904  -2.693  0.00  0.00    -0.251 OA
BRANCH  43  45
ATOM     45  O   LIG    1        8.423   0.223  -2.094  0.00  0.00    -0.481 OA
ATOM     46  H   LIG    1        9.360   0.241  -2.105  0.00  0.00    +0.295 HD
ENDBRANCH  43  45
ENDBRANCH  42  43
ENDBRANCH  41  42
ENDBRANCH  40  41
ENDBRANCH  39  40
ENDBRANCH  37  39
ENDBRANCH  36  37
ENDBRANCH  16  36
TORSDOF 14
