REMARK  Name = DB16038
REMARK                            x       y       z     vdW  Elec       q    Type
REMARK                         _______ _______ _______ _____ _____    ______ ____
ROOT
ATOM      1  C   LIG    1        2.302   0.486   0.543  0.00  0.00    +0.201 C 
ATOM      2  O   LIG    1        2.979   0.598   1.566  0.00  0.00    -0.286 OA
ENDROOT
BRANCH   1   3
ATOM      3  C   LIG    1        2.860   0.823  -0.771  0.00  0.00    +0.049 A 
ATOM      4  C   LIG    1        2.226   0.759  -2.072  0.00  0.00    +0.030 A 
ATOM      5  C   LIG    1        0.970   0.377  -2.583  0.00  0.00    +0.022 A 
ATOM      6  C   LIG    1        0.719   0.493  -3.957  0.00  0.00    +0.004 A 
ATOM      7  C   LIG    1        1.754   0.971  -4.771  0.00  0.00    +0.121 A 
ATOM      8  N   LIG    1        2.989   1.336  -4.340  0.00  0.00    -0.237 NA
ATOM      9  C   LIG    1        3.180   1.222  -3.024  0.00  0.00    +0.139 A 
ATOM     10  N   LIG    1        4.333   1.532  -2.342  0.00  0.00    -0.345 N 
ATOM     11  H   LIG    1        5.200   1.885  -2.720  0.00  0.00    +0.167 HD
ATOM     12  C   LIG    1        4.146   1.294  -1.004  0.00  0.00    +0.096 A 
BRANCH   6  13
ATOM     13  C   LIG    1       -0.610   0.128  -4.522  0.00  0.00    +0.020 A 
ATOM     14  C   LIG    1       -1.806   0.341  -3.817  0.00  0.00    +0.123 A 
ATOM     15  N   LIG    1       -3.029   0.023  -4.314  0.00  0.00    -0.239 NA
ATOM     16  C   LIG    1       -3.046  -0.529  -5.554  0.00  0.00    +0.132 A 
ATOM     17  N   LIG    1       -1.956  -0.786  -6.326  0.00  0.00    -0.239 NA
ATOM     18  C   LIG    1       -0.753  -0.451  -5.792  0.00  0.00    +0.123 A 
BRANCH  16  19
ATOM     19  C   LIG    1       -4.422  -0.885  -6.111  0.00  0.00    +0.057 C 
ATOM     20  C   LIG    1       -4.746  -0.746  -7.590  0.00  0.00    +0.012 C 
ATOM     21  C   LIG    1       -4.639  -2.112  -6.981  0.00  0.00    +0.012 C 
ENDBRANCH  16  19
ENDBRANCH   6  13
ENDBRANCH   1   3
BRANCH   1  25
ATOM     22  C   LIG    1       -1.508   0.497   0.607  0.00  0.00    +0.085 A 
ATOM     23  C   LIG    1       -0.168   0.929   0.606  0.00  0.00    +0.159 A 
ATOM     24  F   LIG    1        0.107   2.260   0.563  0.00  0.00    -0.203 F 
ATOM     25  C   LIG    1        0.895   0.009   0.612  0.00  0.00    +0.094 A 
ATOM     26  C   LIG    1        0.624  -1.363   0.656  0.00  0.00    +0.137 A 
ATOM     27  F   LIG    1        1.625  -2.277   0.662  0.00  0.00    -0.205 F 
ATOM     28  C   LIG    1       -0.693  -1.805   0.685  0.00  0.00    +0.041 A 
ATOM     29  C   LIG    1       -1.741  -0.889   0.658  0.00  0.00    +0.030 A 
BRANCH  22  30
ATOM     30  N   LIG    1       -2.508   1.443   0.550  0.00  0.00    -0.204 N 
ATOM     31  H   LIG    1       -2.266   2.378   0.739  0.00  0.00    +0.175 HD
BRANCH  30  32
ATOM     32  S   LIG    1       -4.008   1.129   0.204  0.00  0.00    +0.112 S 
ATOM     33  O   LIG    1       -4.197   0.080  -0.805  0.00  0.00    -0.138 OA
ATOM     34  O   LIG    1       -4.861   1.069   1.397  0.00  0.00    -0.138 OA
BRANCH  32  38
ATOM     35  F   LIG    1       -4.484   5.228  -1.962  0.00  0.00    -0.244 F 
ATOM     36  C   LIG    1       -4.699   4.027  -2.506  0.00  0.00    +0.183 C 
ATOM     37  C   LIG    1       -3.759   3.020  -1.865  0.00  0.00    +0.147 C 
ATOM     38  N   LIG    1       -4.467   2.629  -0.614  0.00  0.00    -0.161 NA
ATOM     39  C   LIG    1       -5.907   3.020  -0.656  0.00  0.00    +0.114 C 
ATOM     40  C   LIG    1       -6.068   3.523  -2.095  0.00  0.00    +0.055 C 
ENDBRANCH  32  38
ENDBRANCH  30  32
ENDBRANCH  22  30
ENDBRANCH   1  25
TORSDOF 7
