REMARK  Name = DB16846
REMARK                            x       y       z     vdW  Elec       q    Type
REMARK                         _______ _______ _______ _____ _____    ______ ____
ROOT
ATOM      1  N   LIG    1       -2.052   0.910  -0.290  0.00  0.00    -0.286 N 
ATOM      2  C   LIG    1       -2.283   2.268   0.064  0.00  0.00    +0.063 A 
ATOM      3  C   LIG    1       -3.483   3.004   0.112  0.00  0.00    +0.027 A 
ATOM      4  C   LIG    1       -3.490   4.346   0.492  0.00  0.00    +0.002 A 
ATOM      5  C   LIG    1       -2.300   4.984   0.830  0.00  0.00    +0.001 A 
ATOM      6  C   LIG    1       -1.103   4.276   0.785  0.00  0.00    +0.017 A 
ATOM      7  C   LIG    1       -1.105   2.933   0.404  0.00  0.00    +0.038 A 
ATOM      8  S   LIG    1        0.293   1.906   0.289  0.00  0.00    -0.068 S 
ATOM      9  C   LIG    1       -3.038  -0.049  -0.683  0.00  0.00    +0.152 A 
ATOM     10  N   LIG    1       -4.351   0.304  -0.719  0.00  0.00    -0.214 NA
ATOM     11  C   LIG    1       -5.311  -0.583  -1.098  0.00  0.00    +0.124 A 
ATOM     12  C   LIG    1       -4.961  -1.892  -1.445  0.00  0.00    +0.044 A 
ATOM     13  C   LIG    1       -3.623  -2.273  -1.408  0.00  0.00    +0.019 A 
ATOM     14  C   LIG    1       -2.630  -1.357  -1.028  0.00  0.00    +0.065 A 
ATOM     15  C   LIG    1       -1.195  -1.796  -0.998  0.00  0.00    +0.204 A 
ATOM     16  O   LIG    1       -0.869  -2.948  -1.299  0.00  0.00    -0.286 OA
ATOM     17  C   LIG    1       -0.264  -0.729  -0.574  0.00  0.00    +0.115 A 
ATOM     18  C   LIG    1       -0.711   0.519  -0.242  0.00  0.00    +0.103 A 
ENDROOT
BRANCH  11  19
ATOM     19  N   LIG    1       -6.645  -0.118  -1.120  0.00  0.00    -0.317 N 
ATOM     20  C   LIG    1       -7.024   1.105  -0.392  0.00  0.00    +0.104 C 
ATOM     21  C   LIG    1       -8.506   1.263   0.003  0.00  0.00    +0.000 C 
ATOM     22  C   LIG    1       -9.081   0.170   0.926  0.00  0.00    -0.078 C 
ATOM     23  N   LIG    1       -8.783  -1.278   0.470  0.00  0.00    +0.379 N 
ATOM     24  H   LIG    1       -7.824  -1.464   0.727  0.00  0.00    -0.082 HD
ATOM     25  C   LIG    1       -9.644  -2.290   1.252  0.00  0.00    -0.096 C 
ATOM     26  C   LIG    1       -8.850  -1.508  -1.057  0.00  0.00    -0.060 C 
ATOM     27  C   LIG    1       -7.696  -0.845  -1.853  0.00  0.00    +0.088 C 
ENDBRANCH  11  19
BRANCH  17  28
ATOM     28  C   LIG    1        1.150  -1.037  -0.471  0.00  0.00    +0.251 C 
ATOM     29  N   LIG    1        1.597  -1.146   0.795  0.00  0.00    -0.306 N 
ATOM     30  H   LIG    1        0.947  -0.989   1.551  0.00  0.00    +0.149 HD
ATOM     31  O   LIG    1        1.854  -1.226  -1.464  0.00  0.00    -0.270 OA
BRANCH  29  32
ATOM     32  C   LIG    1        2.969  -1.494   1.179  0.00  0.00    +0.161 C 
BRANCH  32  33
ATOM     33  C   LIG    1        3.446  -2.902   0.815  0.00  0.00    +0.076 A 
ATOM     34  N   LIG    1        2.512  -3.888   0.692  0.00  0.00    -0.255 NA
ATOM     35  C   LIG    1        2.944  -5.118   0.308  0.00  0.00    +0.134 A 
ATOM     36  C   LIG    1        4.295  -5.362   0.043  0.00  0.00    +0.056 A 
ATOM     37  C   LIG    1        4.797  -6.727  -0.390  0.00  0.00    +0.067 C 
ATOM     38  N   LIG    1        5.230  -4.382   0.159  0.00  0.00    -0.257 NA
ATOM     39  C   LIG    1        4.796  -3.151   0.540  0.00  0.00    +0.136 A 
ENDBRANCH  32  33
ENDBRANCH  29  32
ENDBRANCH  17  28
TORSDOF 4
