REMARK  Name = DB16215
REMARK                            x       y       z     vdW  Elec       q    Type
REMARK                         _______ _______ _______ _____ _____    ______ ____
ROOT
ATOM      1  C   LIG    1       -2.451  -0.407  -0.984  0.00  0.00    +0.185 C 
ATOM      2  C   LIG    1       -1.784  -1.451  -0.072  0.00  0.00    +0.008 A 
ATOM      3  C   LIG    1       -2.414  -2.664   0.247  0.00  0.00    +0.028 A 
ATOM      4  C   LIG    1       -1.779  -3.627   1.025  0.00  0.00    +0.041 A 
ATOM      5  C   LIG    1       -0.495  -3.393   1.495  0.00  0.00    +0.022 A 
ATOM      6  C   LIG    1        0.143  -2.194   1.196  0.00  0.00    +0.025 A 
ATOM      7 CL   LIG    1       -2.580  -5.111   1.393  0.00  0.00    -0.084 Cl
ATOM      8  C   LIG    1       -0.483  -1.189   0.438  0.00  0.00    +0.042 A 
ATOM      9  N   LIG    1        0.198   0.020   0.101  0.00  0.00    -0.268 N 
ATOM     10  C   LIG    1       -0.331   1.285   0.199  0.00  0.00    +0.249 C 
ATOM     11  O   LIG    1        0.288   2.324  -0.051  0.00  0.00    -0.272 OA
ATOM     12  C   LIG    1       -1.819   1.338   0.669  0.00  0.00    +0.214 C 
ATOM     13  O   LIG    1       -2.728   0.827  -0.318  0.00  0.00    -0.354 OA
ENDROOT
BRANCH   1  16
ATOM     14  C   LIG    1       -4.750  -1.928  -3.674  0.00  0.00    +0.162 A 
ATOM     15  C   LIG    1       -3.599  -1.508  -2.987  0.00  0.00    +0.167 A 
ATOM     16  C   LIG    1       -3.704  -0.870  -1.738  0.00  0.00    +0.031 A 
ATOM     17  C   LIG    1       -4.971  -0.630  -1.198  0.00  0.00    +0.010 A 
ATOM     18  C   LIG    1       -6.117  -1.025  -1.880  0.00  0.00    +0.004 A 
ATOM     19  C   LIG    1       -6.010  -1.673  -3.107  0.00  0.00    +0.049 A 
BRANCH  14  21
ATOM     20  C   LIG    1       -5.703  -3.019  -5.616  0.00  0.00    +0.277 C 
ATOM     21  O   LIG    1       -4.567  -2.577  -4.882  0.00  0.00    -0.491 OA
ENDBRANCH  14  21
BRANCH  15  22
ATOM     22  O   LIG    1       -2.357  -1.763  -3.522  0.00  0.00    -0.491 OA
ATOM     23  C   LIG    1       -1.938  -0.824  -4.505  0.00  0.00    +0.277 C 
ENDBRANCH  15  22
ENDBRANCH   1  16
BRANCH   9  24
ATOM     24  C   LIG    1        1.613  -0.063  -0.354  0.00  0.00    +0.122 C 
BRANCH  24  25
ATOM     25  C   LIG    1        1.852  -0.353  -1.873  0.00  0.00    +0.004 C 
ATOM     26  C   LIG    1        1.258   0.776  -2.750  0.00  0.00    +0.015 C 
ATOM     27  C   LIG    1        1.210  -1.697  -2.302  0.00  0.00    +0.015 C 
BRANCH  25  28
ATOM     28  C   LIG    1        3.383  -0.402  -2.143  0.00  0.00    +0.163 C 
BRANCH  28  29
ATOM     29  O   LIG    1        4.047  -1.425  -1.423  0.00  0.00    -0.394 OA
ATOM     30  H   LIG    1        4.045  -1.193  -0.491  0.00  0.00    +0.209 HD
ENDBRANCH  28  29
ENDBRANCH  25  28
ENDBRANCH  24  25
ENDBRANCH   9  24
BRANCH  12  31
ATOM     31  C   LIG    1       -2.318   2.753   1.094  0.00  0.00    +0.137 C 
BRANCH  31  32
ATOM     32  C   LIG    1       -2.654   3.761  -0.036  0.00  0.00    +0.219 C 
ATOM     33  N   LIG    1       -3.169   4.973   0.308  0.00  0.00    -0.301 N 
ATOM     34  C   LIG    1       -3.554   5.947  -0.723  0.00  0.00    +0.108 C 
ATOM     35  C   LIG    1       -5.016   5.649  -1.133  0.00  0.00    +0.023 C 
ATOM     36  C   LIG    1       -5.992   5.318   0.039  0.00  0.00    +0.003 C 
ATOM     37  C   LIG    1       -5.355   4.849   1.384  0.00  0.00    +0.023 C 
ATOM     38  C   LIG    1       -3.864   5.215   1.579  0.00  0.00    +0.108 C 
ATOM     39  O   LIG    1       -2.321   3.500  -1.195  0.00  0.00    -0.275 OA
BRANCH  36  40
ATOM     40  C   LIG    1       -7.339   4.645  -0.356  0.00  0.00    +0.124 C 
BRANCH  40  41
ATOM     41  C   LIG    1       -7.279   3.162  -0.807  0.00  0.00    +0.305 C 
ATOM     42  O   LIG    1       -8.373   2.639  -1.116  0.00  0.00    -0.251 OA
BRANCH  41  43
ATOM     43  O   LIG    1       -6.184   2.555  -0.846  0.00  0.00    -0.481 OA
ATOM     44  H   LIG    1       -6.155   1.659  -1.120  0.00  0.00    +0.295 HD
ENDBRANCH  41  43
ENDBRANCH  40  41
ENDBRANCH  36  40
ENDBRANCH  31  32
ENDBRANCH  12  31
TORSDOF 12
