REMARK  Name = DB16839
REMARK                            x       y       z     vdW  Elec       q    Type
REMARK                         _______ _______ _______ _____ _____    ______ ____
ROOT
ATOM      1  C   LIG    1        1.667   0.295   0.294  0.00  0.00    +0.285 C 
ATOM      2  O   LIG    1        2.021   0.754   1.574  0.00  0.00    -0.340 OA
ATOM      3  C   LIG    1        1.499  -0.016   2.668  0.00  0.00    +0.178 C 
ATOM      4  C   LIG    1        2.010  -1.474   2.598  0.00  0.00    +0.177 C 
ATOM      5  C   LIG    1        1.707  -2.079   1.211  0.00  0.00    +0.179 C 
ATOM      6  C   LIG    1        2.191  -1.136   0.085  0.00  0.00    +0.201 C 
ENDROOT
BRANCH   4   7
ATOM      7  O   LIG    1        1.465  -2.265   3.640  0.00  0.00    -0.386 OA
ATOM      8  H   LIG    1        0.525  -2.375   3.481  0.00  0.00    +0.210 HD
ENDBRANCH   4   7
BRANCH   5   9
ATOM      9  O   LIG    1        2.264  -3.377   1.074  0.00  0.00    -0.386 OA
ATOM     10  H   LIG    1        3.216  -3.315   1.178  0.00  0.00    +0.210 HD
ENDBRANCH   5   9
BRANCH   6  11
ATOM     11  O   LIG    1        1.888  -1.622  -1.211  0.00  0.00    -0.384 OA
ATOM     12  H   LIG    1        1.918  -2.581  -1.188  0.00  0.00    +0.210 HD
ENDBRANCH   6  11
BRANCH   1  13
ATOM     13  O   LIG    1        0.275   0.295   0.077  0.00  0.00    -0.313 OA
BRANCH  13  14
ATOM     14  C   LIG    1       -0.442   1.519   0.104  0.00  0.00    +0.225 C 
ATOM     15  O   LIG    1       -0.476   2.055   1.399  0.00  0.00    -0.336 OA
ATOM     16  C   LIG    1       -1.752   2.553   1.790  0.00  0.00    +0.178 C 
ATOM     17  C   LIG    1       -2.658   2.264   0.586  0.00  0.00    +0.179 C 
ATOM     18  C   LIG    1       -1.921   1.185  -0.212  0.00  0.00    +0.207 C 
BRANCH  17  19
ATOM     19  O   LIG    1       -2.934   3.425  -0.178  0.00  0.00    -0.386 OA
ATOM     20  H   LIG    1       -3.260   4.108   0.412  0.00  0.00    +0.210 HD
ENDBRANCH  17  19
BRANCH  18  21
ATOM     21  O   LIG    1       -2.297  -0.122   0.206  0.00  0.00    -0.384 OA
ATOM     22  H   LIG    1       -3.181  -0.305  -0.123  0.00  0.00    +0.210 HD
ENDBRANCH  18  21
BRANCH  14  23
ATOM     23  C   LIG    1        0.175   2.549  -0.883  0.00  0.00    +0.223 C 
BRANCH  23  24
ATOM     24  O   LIG    1        1.233   3.304  -0.315  0.00  0.00    -0.390 OA
ATOM     25  H   LIG    1        1.562   3.914  -0.979  0.00  0.00    +0.210 HD
ENDBRANCH  23  24
ENDBRANCH  14  23
BRANCH  16  26
ATOM     26  C   LIG    1       -2.135   1.823   3.091  0.00  0.00    +0.190 C 
BRANCH  26  27
ATOM     27  O   LIG    1       -3.256   2.436   3.693  0.00  0.00    -0.392 OA
ATOM     28  H   LIG    1       -3.438   1.987   4.522  0.00  0.00    +0.210 HD
ENDBRANCH  26  27
ENDBRANCH  16  26
ENDBRANCH  13  14
ENDBRANCH   1  13
BRANCH   3  29
ATOM     29  C   LIG    1        1.903   0.716   3.962  0.00  0.00    +0.197 C 
BRANCH  29  30
ATOM     30  O   LIG    1        1.326   2.018   3.930  0.00  0.00    -0.346 OA
BRANCH  30  31
ATOM     31  C   LIG    1        1.939   2.979   4.740  0.00  0.00    +0.282 C 
ATOM     32  O   LIG    1        3.254   3.269   4.319  0.00  0.00    -0.341 OA
ATOM     33  C   LIG    1        3.357   3.786   2.981  0.00  0.00    +0.178 C 
ATOM     34  C   LIG    1        2.572   5.116   2.849  0.00  0.00    +0.177 C 
ATOM     35  C   LIG    1        1.115   4.905   3.312  0.00  0.00    +0.179 C 
ATOM     36  C   LIG    1        1.081   4.257   4.718  0.00  0.00    +0.201 C 
BRANCH  34  37
ATOM     37  O   LIG    1        3.209   6.180   3.541  0.00  0.00    -0.386 OA
ATOM     38  H   LIG    1        2.725   6.991   3.369  0.00  0.00    +0.210 HD
ENDBRANCH  34  37
BRANCH  35  39
ATOM     39  O   LIG    1        0.345   6.095   3.247  0.00  0.00    -0.386 OA
ATOM     40  H   LIG    1        0.591   6.574   2.452  0.00  0.00    +0.210 HD
ENDBRANCH  35  39
BRANCH  36  41
ATOM     41  O   LIG    1       -0.233   4.023   5.193  0.00  0.00    -0.384 OA
ATOM     42  H   LIG    1       -0.787   4.756   4.915  0.00  0.00    +0.210 HD
ENDBRANCH  36  41
BRANCH  33  43
ATOM     43  C   LIG    1        4.846   3.909   2.594  0.00  0.00    +0.190 C 
BRANCH  43  44
ATOM     44  O   LIG    1        5.456   2.636   2.517  0.00  0.00    -0.392 OA
ATOM     45  H   LIG    1        6.383   2.754   2.296  0.00  0.00    +0.210 HD
ENDBRANCH  43  44
ENDBRANCH  33  43
ENDBRANCH  30  31
ENDBRANCH  29  30
ENDBRANCH   3  29
TORSDOF 19
