REMARK  Name = DB16019
REMARK                            x       y       z     vdW  Elec       q    Type
REMARK                         _______ _______ _______ _____ _____    ______ ____
ROOT
ATOM      1  C   UNK A  1       -1.847   4.067   0.525  0.00  0.00    +0.100 C 
ENDROOT
BRANCH   1   2
ATOM      2  C   UNK A  1       -0.346   3.747   0.497  0.00  0.00    +0.213 C 
ATOM      3  N   UNK A  1        0.149   3.078   1.552  0.00  0.00    -0.315 N 
ATOM      4  H   UNK A  1       -0.473   2.855   2.317  0.00  0.00    +0.149 HD
ATOM      5  O   UNK A  1        0.336   4.099  -0.468  0.00  0.00    -0.276 OA
BRANCH   3   6
ATOM      6  C   UNK A  1        1.541   2.666   1.713  0.00  0.00    +0.104 C 
BRANCH   6   7
ATOM      7  C   UNK A  1        1.794   1.222   1.245  0.00  0.00    +0.019 C 
BRANCH   7   8
ATOM      8  C   UNK A  1        3.222   0.736   1.548  0.00  0.00    +0.002 C 
BRANCH   8   9
ATOM      9  C   UNK A  1        3.464  -0.722   1.109  0.00  0.00    +0.009 C 
BRANCH   9  10
ATOM     10  C   UNK A  1        4.907  -1.224   1.339  0.00  0.00    +0.096 C 
BRANCH  10  11
ATOM     11  C   UNK A  1        5.298  -1.337   2.820  0.00  0.00    +0.213 C 
ATOM     12  N   UNK A  1        6.358  -0.613   3.219  0.00  0.00    -0.315 N 
ATOM     13  H   UNK A  1        6.824  -0.025   2.543  0.00  0.00    +0.149 HD
ATOM     14  O   UNK A  1        4.656  -2.073   3.571  0.00  0.00    -0.276 OA
BRANCH  12  15
ATOM     15  C   UNK A  1        6.889  -0.586   4.581  0.00  0.00    +0.104 C 
BRANCH  15  16
ATOM     16  C   UNK A  1        7.721  -1.833   4.945  0.00  0.00    +0.019 C 
BRANCH  16  17
ATOM     17  C   UNK A  1        8.412  -1.757   6.321  0.00  0.00    +0.004 C 
BRANCH  17  18
ATOM     18  C   UNK A  1        7.436  -1.753   7.522  0.00  0.00    +0.034 C 
BRANCH  18  19
ATOM     19  C   UNK A  1        8.106  -1.745   8.923  0.00  0.00    +0.183 C 
BRANCH  19  20
ATOM     20  N   UNK A  1        8.927  -0.542   9.114  0.00  0.00    -0.286 N 
ATOM     21  H   UNK A  1        9.169  -0.047   8.268  0.00  0.00    +0.151 HD
ATOM     22  C   UNK A  0        9.391  -0.081  10.287  0.00  0.00    +0.301 C 
ATOM     23  N   UNK A  1       10.193   0.980  10.111  0.00  0.00    -0.286 N 
ATOM     24  H   UNK A  1       10.330   1.340   9.178  0.00  0.00    +0.151 HD
ATOM     25  O   UNK A  0        9.122  -0.577  11.383  0.00  0.00    -0.253 OA
BRANCH  23  26
ATOM     26  C   UNK A  1       10.909   1.696  11.172  0.00  0.00    +0.183 C 
BRANCH  26  27
ATOM     27  C   UNK A  1       10.203   3.037  11.462  0.00  0.00    +0.325 C 
ATOM     28  O   UNK A  1       10.664   4.127  11.189  0.00  0.00    -0.249 OA
BRANCH  27  29
ATOM     29  O   UNK A  1        9.011   2.807  12.088  0.00  0.00    -0.479 OA
ATOM     30  H   UNK A  1        8.544   3.619  12.296  0.00  0.00    +0.295 HD
ENDBRANCH  27  29
ENDBRANCH  26  27
BRANCH  26  31
ATOM     31  C   UNK A  1       12.396   1.871  10.766  0.00  0.00    +0.045 C 
BRANCH  31  32
ATOM     32  C   UNK A  1       13.154   0.540  10.588  0.00  0.00    +0.123 C 
BRANCH  32  33
ATOM     33  C   UNK A  1       14.618   0.767  10.217  0.00  0.00    +0.305 C 
ATOM     34  O   UNK A  1       15.042   0.743   9.064  0.00  0.00    -0.251 OA
BRANCH  33  35
ATOM     35  O   UNK A  1       15.396   1.008  11.311  0.00  0.00    -0.481 OA
ATOM     36  H   UNK A  1       16.317   1.155  11.084  0.00  0.00    +0.295 HD
ENDBRANCH  33  35
ENDBRANCH  32  33
ENDBRANCH  31  32
ENDBRANCH  26  31
ENDBRANCH  23  26
ENDBRANCH  19  20
BRANCH  19  37
ATOM     37  C   UNK A  1        8.877  -3.056   9.215  0.00  0.00    +0.325 C 
ATOM     38  O   UNK A  1       10.085  -3.137   9.327  0.00  0.00    -0.249 OA
BRANCH  37  39
ATOM     39  O   UNK A  1        7.994  -4.091   9.331  0.00  0.00    -0.479 OA
ATOM     40  H   UNK A  1        8.430  -4.925   9.519  0.00  0.00    +0.295 HD
ENDBRANCH  37  39
ENDBRANCH  19  37
ENDBRANCH  18  19
ENDBRANCH  17  18
ENDBRANCH  16  17
ENDBRANCH  15  16
ENDBRANCH  12  15
ENDBRANCH  10  11
ENDBRANCH   9  10
ENDBRANCH   8   9
ENDBRANCH   7   8
ENDBRANCH   6   7
ENDBRANCH   3   6
ENDBRANCH   1   2
BRANCH   1  41
ATOM     41  C   UNK A  1       -2.164   5.572   0.709  0.00  0.00    +0.044 C 
BRANCH  41  45
ATOM     42  C   UNK A  1       -0.862   7.531   4.357  0.00  0.00    +0.121 A 
ATOM     43  C   UNK A  1       -1.026   8.254   3.175  0.00  0.00    +0.046 A 
ATOM     44  C   UNK A  1       -1.438   7.611   2.009  0.00  0.00    +0.007 A 
ATOM     45  C   UNK A  1       -1.690   6.236   2.006  0.00  0.00    -0.046 A 
ATOM     46  C   UNK A  1       -1.534   5.517   3.199  0.00  0.00    +0.012 A 
ATOM     47  C   UNK A  1       -1.117   6.152   4.375  0.00  0.00    +0.008 A 
BRANCH  42  48
ATOM     48  O   UNK A  1       -0.457   8.198   5.484  0.00  0.00    -0.506 OA
ATOM     49  H   UNK A  1       -0.373   9.144   5.342  0.00  0.00    +0.292 HD
ENDBRANCH  42  48
BRANCH  47  50
ATOM     50  C   UNK A  1       -0.943   5.323   5.647  0.00  0.00    +0.123 C 
BRANCH  50  51
ATOM     51  N   UNK A  1       -2.182   4.694   6.147  0.00  0.00    -0.287 NA
BRANCH  51  52
ATOM     52  C   UNK A  1       -1.867   3.609   7.097  0.00  0.00    +0.100 C 
BRANCH  52  53
ATOM     53  C   UNK A  1       -0.960   2.458   6.589  0.00  0.00    +0.100 C 
BRANCH  53  54
ATOM     54  N   UNK A  1       -1.313   1.880   5.283  0.00  0.00    -0.287 NA
BRANCH  54  55
ATOM     55  C   UNK A  1       -0.158   1.245   4.611  0.00  0.00    +0.205 C 
BRANCH  55  56
ATOM     56  C   UNK A  1        0.473  -0.039   5.227  0.00  0.00    +0.319 C 
ATOM     57  O   UNK A  1        1.449  -0.507   4.597  0.00  0.00    -0.250 OA
BRANCH  56  58
ATOM     58  O   UNK A  1        0.020  -0.550   6.277  0.00  0.00    -0.480 OA
ATOM     59  H   UNK A  1       -0.548  -0.054   6.832  0.00  0.00    +0.295 HD
ENDBRANCH  56  58
ENDBRANCH  55  56
ENDBRANCH  54  55
BRANCH  54  60
ATOM     60  C   UNK A  1       -2.517   1.034   5.297  0.00  0.00    +0.123 C 
BRANCH  60  61
ATOM     61  C   UNK A  1       -3.814   1.824   5.143  0.00  0.00    +0.008 A 
ATOM     62  C   UNK A  1       -4.799   1.838   6.143  0.00  0.00    +0.121 A 
ATOM     63  C   UNK A  1       -5.979   2.557   5.947  0.00  0.00    +0.046 A 
ATOM     64  C   UNK A  1       -6.191   3.255   4.758  0.00  0.00    +0.007 A 
ATOM     65  C   UNK A  1       -5.220   3.243   3.753  0.00  0.00    -0.046 A 
ATOM     66  C   UNK A  1       -4.035   2.530   3.955  0.00  0.00    +0.012 A 
BRANCH  62  67
ATOM     67  O   UNK A  1       -4.631   1.156   7.321  0.00  0.00    -0.506 OA
ATOM     68  H   UNK A  1       -5.367   1.278   7.925  0.00  0.00    +0.292 HD
ENDBRANCH  62  67
BRANCH  65  69
ATOM     69  C   UNK A  1       -5.434   4.015   2.458  0.00  0.00    +0.046 C 
BRANCH  69  70
ATOM     70  C   UNK A  1       -5.601   3.094   1.220  0.00  0.00    +0.125 C 
BRANCH  70  71
ATOM     71  C   UNK A  1       -5.623   3.840  -0.135  0.00  0.00    +0.305 C 
ATOM     72  O   UNK A  1       -5.232   3.197  -1.134  0.00  0.00    -0.251 OA
BRANCH  71  73
ATOM     73  O   UNK A  1       -6.057   5.015  -0.185  0.00  0.00    -0.481 OA
ATOM     74  H   UNK A  1       -6.539   5.367   0.537  0.00  0.00    +0.295 HD
ENDBRANCH  71  73
ENDBRANCH  70  71
ENDBRANCH  69  70
ENDBRANCH  65  69
ENDBRANCH  60  61
ENDBRANCH  54  60
ENDBRANCH  53  54
ENDBRANCH  52  53
ENDBRANCH  51  52
BRANCH  51  75
ATOM     75  C   UNK A  1       -3.040   5.657   6.878  0.00  0.00    +0.205 C 
BRANCH  75  76
ATOM     76  C   UNK A  1       -3.851   6.652   6.010  0.00  0.00    +0.319 C 
ATOM     77  O   UNK A  1       -4.342   6.271   4.923  0.00  0.00    -0.250 OA
BRANCH  76  78
ATOM     78  O   UNK A  1       -4.022   7.794   6.493  0.00  0.00    -0.480 OA
ATOM     79  H   UNK A  1       -4.288   7.890   7.386  0.00  0.00    +0.295 HD
ENDBRANCH  76  78
ENDBRANCH  75  76
ENDBRANCH  51  75
ENDBRANCH  50  51
ENDBRANCH  47  50
ENDBRANCH  41  45
ENDBRANCH   1  41
TORSDOF 43
