REMARK  Name = DB16238
REMARK                            x       y       z     vdW  Elec       q    Type
REMARK                         _______ _______ _______ _____ _____    ______ ____
ROOT
ATOM      1  C   LIG    1        0.164   0.246  -0.284  0.00  0.00    +0.163 C 
ATOM      2  C   LIG    1       -0.159  -0.721  -1.493  0.00  0.00    +0.095 C 
ATOM      3  C   LIG    1       -1.335  -0.254  -2.432  0.00  0.00    +0.046 C 
ATOM      4  C   LIG    1       -1.859  -1.165  -3.631  0.00  0.00    +0.031 C 
ATOM      5  C   LIG    1       -2.469  -2.614  -3.307  0.00  0.00    +0.020 C 
ATOM      6  C   LIG    1       -1.570  -3.889  -3.577  0.00  0.00    +0.060 C 
ATOM      7  C   LIG    1       -2.191  -4.691  -4.752  0.00  0.00    +0.016 C 
ATOM      8  C   LIG    1       -1.114  -4.869  -2.369  0.00  0.00    +0.162 C 
ATOM      9  O   LIG    1        0.136  -4.592  -1.684  0.00  0.00    -0.367 OA
ATOM     10  C   LIG    1        1.404  -4.559  -2.359  0.00  0.00    +0.216 C 
ATOM     11  C   LIG    1        1.806  -3.201  -3.016  0.00  0.00    +0.109 C 
ATOM     12  N   LIG    1        2.095  -3.050  -4.251  0.00  0.00    -0.089 NA
ATOM     13  C   LIG    1        1.961  -1.972  -2.092  0.00  0.00    +0.217 C 
ATOM     14  C   LIG    1       -2.127  -5.438  -1.275  0.00  0.00    +0.126 C 
ATOM     15  C   LIG    1       -1.450  -6.629  -0.538  0.00  0.00    +0.048 C 
ATOM     16  C   LIG    1       -2.801  -4.477  -0.190  0.00  0.00    +0.210 C 
ATOM     17  O   LIG    1       -1.916  -3.923   0.828  0.00  0.00    -0.458 OA
ATOM     18  C   LIG    1       -2.318  -2.852   1.640  0.00  0.00    +0.318 C 
ATOM     19  O   LIG    1       -3.468  -2.408   1.681  0.00  0.00    -0.250 OA
ATOM     20  C   LIG    1       -1.223  -2.251   2.564  0.00  0.00    +0.161 C 
ATOM     21  C   LIG    1       -1.786  -1.738   3.910  0.00  0.00    +0.027 C 
ATOM     22  C   LIG    1       -0.217  -1.219   1.952  0.00  0.00    +0.152 C 
ATOM     23  O   LIG    1        0.977  -1.416   2.182  0.00  0.00    -0.296 OA
ATOM     24  N   LIG    1       -3.683  -2.838  -2.945  0.00  0.00    -0.189 NA
ATOM     25  C   LIG    1       -0.928  -1.136  -4.857  0.00  0.00    +0.013 C 
ATOM     26  C   LIG    1       -0.609  -2.015  -0.932  0.00  0.00    +0.044 C 
ATOM     27  O   LIG    1        0.990  -0.928  -2.360  0.00  0.00    -0.365 OA
ATOM     28  C   LIG    1       -0.600   0.054   1.103  0.00  0.00    +0.085 C 
ATOM     29  C   LIG    1       -2.100   0.402   1.013  0.00  0.00    +0.018 C 
ENDROOT
BRANCH  24  30
ATOM     30  C   LIG    1       -4.621  -1.829  -2.851  0.00  0.00    +0.233 C 
ATOM     31  O   LIG    1       -5.316  -1.483  -3.807  0.00  0.00    -0.274 OA
ATOM     32  C   LIG    1       -4.793  -1.191  -1.473  0.00  0.00    +0.111 C 
ENDBRANCH  24  30
BRANCH  14  33
ATOM     33  O   LIG    1       -3.163  -6.044  -2.034  0.00  0.00    -0.383 OA
ATOM     34  H   LIG    1       -2.769  -6.675  -2.640  0.00  0.00    +0.210 HD
ENDBRANCH  14  33
BRANCH  16  35
ATOM     35  C   LIG    1       -4.061  -5.121   0.497  0.00  0.00    +0.044 C 
ATOM     36  C   LIG    1       -5.394  -4.599  -0.062  0.00  0.00    +0.007 C 
ENDBRANCH  16  35
BRANCH  12  37
ATOM     37  O   LIG    1        1.974  -4.245  -4.989  0.00  0.00    -0.389 OA
BRANCH  37  38
ATOM     38  C   LIG    1        2.353  -4.029  -6.345  0.00  0.00    +0.299 C 
BRANCH  38  39
ATOM     39  C   LIG    1        1.292  -3.238  -7.099  0.00  0.00    +0.010 A 
ATOM     40  C   LIG    1        1.493  -1.897  -7.439  0.00  0.00    +0.012 A 
ATOM     41  C   LIG    1        0.492  -1.200  -8.119  0.00  0.00    +0.048 A 
ATOM     42  C   LIG    1       -0.701  -1.867  -8.444  0.00  0.00    +0.154 A 
ATOM     43  N   LIG    1       -0.900  -3.177  -8.120  0.00  0.00    -0.236 NA
ATOM     44  C   LIG    1        0.085  -3.838  -7.463  0.00  0.00    +0.120 A 
BRANCH  42  45
ATOM     45  N   LIG    1       -1.775  -1.206  -9.100  0.00  0.00    -0.222 N 
ATOM     46  N   LIG    1       -1.665   0.076  -9.507  0.00  0.00    -0.173 NA
ATOM     47  C   LIG    1       -2.817   0.377 -10.061  0.00  0.00    +0.135 A 
ATOM     48  C   LIG    1       -3.713  -0.692 -10.035  0.00  0.00    +0.041 A 
ATOM     49  C   LIG    1       -3.021  -1.710  -9.410  0.00  0.00    +0.116 A 
ENDBRANCH  42  45
ENDBRANCH  38  39
ENDBRANCH  37  38
ENDBRANCH  12  37
BRANCH   1  50
ATOM     50  O   LIG    1        1.562   0.140  -0.001  0.00  0.00    -0.342 OA
BRANCH  50  51
ATOM     51  C   LIG    1        2.325   1.302  -0.118  0.00  0.00    +0.278 C 
ATOM     52  C   LIG    1        3.726   0.976   0.427  0.00  0.00    +0.157 C 
ATOM     53  C   LIG    1        4.661   2.210   0.253  0.00  0.00    -0.033 C 
ATOM     54  C   LIG    1        4.579   2.751  -1.198  0.00  0.00    +0.019 C 
ATOM     55  C   LIG    1        3.124   2.882  -1.690  0.00  0.00    +0.117 C 
ATOM     56  C   LIG    1        3.042   3.239  -3.181  0.00  0.00    +0.038 C 
ATOM     57  O   LIG    1        2.422   1.660  -1.471  0.00  0.00    -0.346 OA
BRANCH  53  58
ATOM     58  N   LIG    1        6.120   1.811   0.653  0.00  0.00    +0.380 N 
ATOM     59  H   LIG    1        6.176   0.808   0.540  0.00  0.00    -0.082 HD
ATOM     60  C   LIG    1        6.405   2.105   2.144  0.00  0.00    -0.096 C 
ATOM     61  C   LIG    1        7.274   2.410  -0.184  0.00  0.00    -0.096 C 
ENDBRANCH  53  58
BRANCH  52  62
ATOM     62  O   LIG    1        3.619   0.547   1.773  0.00  0.00    -0.388 OA
ATOM     63  H   LIG    1        3.063  -0.236   1.799  0.00  0.00    +0.210 HD
ENDBRANCH  52  62
ENDBRANCH  50  51
ENDBRANCH   1  50
TORSDOF 11
