REMARK  Name = DB16294
REMARK                            x       y       z     vdW  Elec       q    Type
REMARK                         _______ _______ _______ _____ _____    ______ ____
ROOT
ATOM      1  N   LIG    1       -2.199   1.470   1.067  0.00  0.00    -0.254 N 
ATOM      2  H   LIG    1       -2.117   1.950   0.183  0.00  0.00    +0.158 HD
ATOM      3  C   LIG    1       -1.960   0.145   1.081  0.00  0.00    +0.305 C 
ATOM      4  N   LIG    1       -1.551  -0.281  -0.125  0.00  0.00    -0.295 N 
ATOM      5  H   LIG    1       -1.845   0.224  -0.948  0.00  0.00    +0.151 HD
ATOM      6  O   LIG    1       -1.998  -0.577   2.080  0.00  0.00    -0.252 OA
ENDROOT
BRANCH   1   8
ATOM      7  N   LIG    1       -1.887   3.614   2.170  0.00  0.00    -0.218 N 
ATOM      8  C   LIG    1       -2.210   2.272   2.199  0.00  0.00    +0.130 A 
ATOM      9  C   LIG    1       -2.454   1.998   3.538  0.00  0.00    +0.069 A 
ATOM     10  C   LIG    1       -2.241   3.190   4.245  0.00  0.00    +0.071 A 
ATOM     11  N   LIG    1       -1.902   4.149   3.405  0.00  0.00    -0.169 NA
BRANCH   7  16
ATOM     12  C   LIG    1       -0.427   6.875  -2.304  0.00  0.00    +0.044 C 
ATOM     13  C   LIG    1       -0.821   6.010  -1.121  0.00  0.00    -0.050 A 
ATOM     14  C   LIG    1       -1.887   5.114  -1.228  0.00  0.00    +0.005 A 
ATOM     15  C   LIG    1       -2.244   4.324  -0.139  0.00  0.00    +0.028 A 
ATOM     16  C   LIG    1       -1.536   4.428   1.064  0.00  0.00    +0.067 A 
ATOM     17  C   LIG    1       -0.467   5.328   1.167  0.00  0.00    +0.028 A 
ATOM     18  C   LIG    1       -0.112   6.115   0.076  0.00  0.00    +0.005 A 
ENDBRANCH   7  16
BRANCH  10  19
ATOM     19  C   LIG    1       -2.348   3.430   5.759  0.00  0.00    +0.006 C 
ATOM     20  C   LIG    1       -1.169   2.720   6.460  0.00  0.00    +0.017 C 
ATOM     21  C   LIG    1       -2.313   4.936   6.126  0.00  0.00    +0.017 C 
ATOM     22  C   LIG    1       -3.679   2.839   6.280  0.00  0.00    +0.017 C 
ENDBRANCH  10  19
ENDBRANCH   1   8
BRANCH   4  23
ATOM     23  C   LIG    1       -0.687  -1.443  -0.346  0.00  0.00    +0.145 C 
BRANCH  23  24
ATOM     24  C   LIG    1        0.532  -1.161  -1.224  0.00  0.00    +0.015 A 
ATOM     25  C   LIG    1        1.400  -0.075  -0.988  0.00  0.00    +0.133 A 
ATOM     26  C   LIG    1        2.503   0.127  -1.823  0.00  0.00    +0.049 A 
ATOM     27  C   LIG    1        2.756  -0.742  -2.882  0.00  0.00    +0.042 A 
ATOM     28  C   LIG    1        1.902  -1.816  -3.120  0.00  0.00    +0.124 A 
ATOM     29  F   LIG    1        2.145  -2.658  -4.150  0.00  0.00    -0.205 F 
ATOM     30  C   LIG    1        0.796  -2.022  -2.296  0.00  0.00    +0.047 A 
BRANCH  25  31
ATOM     31  O   LIG    1        1.182   0.842   0.015  0.00  0.00    -0.456 OA
BRANCH  31  32
ATOM     32  C   LIG    1        1.492   0.574   1.333  0.00  0.00    +0.129 A 
ATOM     33  C   LIG    1        1.185   1.577   2.254  0.00  0.00    +0.048 A 
ATOM     34  C   LIG    1        1.399   1.435   3.624  0.00  0.00    +0.031 A 
ATOM     35  C   LIG    1        1.958   0.227   4.051  0.00  0.00    +0.069 A 
ATOM     36  N   LIG    1        2.292  -0.262   5.303  0.00  0.00    -0.262 N 
ATOM     37  N   LIG    1        2.860  -1.484   5.229  0.00  0.00    -0.178 NA
ATOM     38  C   LIG    1        2.860  -1.829   3.967  0.00  0.00    +0.143 A 
ATOM     39  C   LIG    1        2.309  -0.803   3.144  0.00  0.00    +0.023 A 
ATOM     40  C   LIG    1        2.074  -0.625   1.773  0.00  0.00    +0.057 A 
BRANCH  36  41
ATOM     41  C   LIG    1        2.193   0.409   6.597  0.00  0.00    +0.172 C 
BRANCH  41  42
ATOM     42  C   LIG    1        3.518   1.070   7.026  0.00  0.00    +0.179 C 
BRANCH  42  43
ATOM     43  O   LIG    1        3.900   2.091   6.125  0.00  0.00    -0.393 OA
ATOM     44  H   LIG    1        4.747   2.445   6.405  0.00  0.00    +0.209 HD
ENDBRANCH  42  43
ENDBRANCH  41  42
ENDBRANCH  36  41
ENDBRANCH  31  32
ENDBRANCH  25  31
ENDBRANCH  23  24
ENDBRANCH   4  23
TORSDOF 10
