REMARK  Name = DB16137
REMARK                            x       y       z     vdW  Elec       q    Type
REMARK                         _______ _______ _______ _____ _____    ______ ____
ROOT
ATOM      1  C   LIG    1        1.458  -0.153  -0.265  0.00  0.00    +0.077 A 
ATOM      2  N   LIG    1        2.153   0.794  -0.972  0.00  0.00    -0.225 NA
ATOM      3  C   LIG    1        3.424   0.873  -0.806  0.00  0.00    +0.181 A 
ATOM      4  S   LIG    1        4.455   2.053  -1.629  0.00  0.00    -0.057 S 
ATOM      5  C   LIG    1        5.830   1.363  -0.784  0.00  0.00    +0.070 A 
ATOM      6  C   LIG    1        5.506   0.338   0.026  0.00  0.00    +0.033 A 
ATOM      7  C   LIG    1        6.514  -0.415   0.891  0.00  0.00    +0.064 C 
ATOM      8  N   LIG    1        4.147   0.041   0.023  0.00  0.00    -0.259 N 
ATOM      9  C   LIG    1        3.538  -0.987   0.732  0.00  0.00    +0.267 A 
ATOM     10  O   LIG    1        4.133  -1.812   1.431  0.00  0.00    -0.267 OA
ATOM     11  C   LIG    1        2.071  -1.043   0.580  0.00  0.00    +0.070 A 
ENDROOT
BRANCH  11  12
ATOM     12  C   LIG    1        1.315  -2.075   1.337  0.00  0.00    -0.008 A 
ATOM     13  C   LIG    1        0.571  -3.053   0.663  0.00  0.00    +0.047 A 
ATOM     14  C   LIG    1       -0.141  -4.020   1.372  0.00  0.00    +0.124 A 
ATOM     15  F   LIG    1       -0.856  -4.956   0.707  0.00  0.00    -0.205 F 
ATOM     16  C   LIG    1       -0.116  -4.023   2.766  0.00  0.00    +0.038 A 
ATOM     17  C   LIG    1        0.623  -3.058   3.450  0.00  0.00    +0.003 A 
ATOM     18  C   LIG    1        1.334  -2.092   2.739  0.00  0.00    +0.009 A 
ENDBRANCH  11  12
BRANCH   1  20
ATOM     19  C   LIG    1       -0.471  -0.493  -1.910  0.00  0.00    +0.034 C 
ATOM     20  C   LIG    1       -0.060  -0.035  -0.498  0.00  0.00    +0.118 C 
BRANCH  20  21
ATOM     21  N   LIG    1       -0.669   1.261  -0.182  0.00  0.00    -0.319 N 
ATOM     22  H   LIG    1       -1.215   1.716  -0.899  0.00  0.00    +0.148 HD
BRANCH  21  23
ATOM     23  C   LIG    1       -0.593   1.862   1.088  0.00  0.00    +0.150 A 
ATOM     24  N   LIG    1        0.048   1.233   2.116  0.00  0.00    -0.219 NA
ATOM     25  C   LIG    1        0.087   1.865   3.319  0.00  0.00    +0.225 A 
ATOM     26  N   LIG    1       -0.444   3.075   3.644  0.00  0.00    -0.216 NA
ATOM     27  C   LIG    1       -1.064   3.656   2.612  0.00  0.00    +0.163 A 
ATOM     28  N   LIG    1       -1.713   4.865   2.553  0.00  0.00    -0.329 N 
ATOM     29  H   LIG    1       -1.852   5.557   3.275  0.00  0.00    +0.168 HD
ATOM     30  C   LIG    1       -2.175   4.991   1.262  0.00  0.00    +0.198 A 
ATOM     31  N   LIG    1       -1.884   3.974   0.487  0.00  0.00    -0.231 NA
ATOM     32  C   LIG    1       -1.186   3.120   1.305  0.00  0.00    +0.147 A 
ENDBRANCH  21  23
ENDBRANCH  20  21
ENDBRANCH   1  20
TORSDOF 4
