REMARK  Name = DB16845
REMARK                            x       y       z     vdW  Elec       q    Type
REMARK                         _______ _______ _______ _____ _____    ______ ____
ROOT
ATOM      1  C   LIG    1       -5.249   3.430  -1.053  0.00  0.00    -0.001 A 
ATOM      2  C   LIG    1       -5.690   2.106  -0.960  0.00  0.00    +0.014 A 
ATOM      3  C   LIG    1       -4.793   1.046  -0.809  0.00  0.00    -0.007 A 
ATOM      4  C   LIG    1       -5.277  -0.396  -0.713  0.00  0.00    +0.040 C 
ATOM      5  C   LIG    1       -4.244  -1.275   0.013  0.00  0.00    +0.024 C 
ATOM      6  C   LIG    1       -2.835  -1.099  -0.591  0.00  0.00    +0.117 C 
ATOM      7  N   LIG    1       -2.470   0.330  -0.436  0.00  0.00    -0.239 N 
ATOM      8  C   LIG    1       -1.284   0.597   0.184  0.00  0.00    +0.313 C 
ATOM      9  O   LIG    1       -1.192   1.411   1.106  0.00  0.00    -0.252 OA
ATOM     10  N   LIG    1       -0.226  -0.059  -0.354  0.00  0.00    -0.254 N 
ATOM     11  H   LIG    1       -0.429  -0.697  -1.110  0.00  0.00    +0.158 HD
ATOM     12  C   LIG    1       -3.418   1.350  -0.773  0.00  0.00    +0.133 A 
ATOM     13  N   LIG    1       -2.976   2.639  -0.869  0.00  0.00    -0.228 NA
ATOM     14  CA  LIG    1       -3.857   3.660  -1.022  0.00  0.00    +0.110 A 
ENDROOT
BRANCH  10  15
ATOM     15  C   LIG    1        1.134   0.015  -0.001  0.00  0.00    +0.128 A 
ATOM     16  C   LIG    1        1.997  -0.849  -0.681  0.00  0.00    +0.068 A 
ATOM     17  C   LIG    1        3.371  -0.848  -0.385  0.00  0.00    +0.050 A 
ATOM     18  C   LIG    1        3.837   0.051   0.601  0.00  0.00    +0.091 A 
ATOM     19  C   LIG    1        2.912   0.886   1.234  0.00  0.00    +0.133 A 
ATOM     20  N   LIG    1        1.588   0.876   0.950  0.00  0.00    -0.239 NA
BRANCH  17  21
ATOM     21  N   LIG    1        4.266  -1.717  -1.047  0.00  0.00    -0.341 N 
ATOM     22  H   LIG    1        5.180  -1.827  -0.629  0.00  0.00    +0.146 HD
BRANCH  21  23
ATOM     23  C   LIG    1        3.804  -2.808  -1.897  0.00  0.00    +0.129 C 
BRANCH  23  24
ATOM     24  C   LIG    1        4.954  -3.622  -2.508  0.00  0.00    +0.178 C 
BRANCH  24  25
ATOM     25  O   LIG    1        5.712  -4.229  -1.470  0.00  0.00    -0.381 OA
ATOM     26  C   LIG    1        6.797  -5.011  -1.944  0.00  0.00    +0.194 C 
ENDBRANCH  24  25
ENDBRANCH  23  24
ENDBRANCH  21  23
ENDBRANCH  17  21
BRANCH  18  27
ATOM     27  C   LIG    1        5.242   0.152   0.996  0.00  0.00    +0.103 C 
ATOM     28  N   LIG    1        6.353   0.231   1.308  0.00  0.00    -0.191 NA
ENDBRANCH  18  27
ENDBRANCH  10  15
BRANCH  14  29
ATOM     29  C   LIG    1       -3.188   4.990  -1.118  0.00  0.00    +0.278 C 
ATOM     30  O   LIG    1       -3.745   6.081  -1.218  0.00  0.00    -0.294 OA
ENDBRANCH  14  29
BRANCH   1  31
ATOM     31  C   LIG    1       -6.312   4.514  -1.246  0.00  0.00    +0.145 C 
BRANCH  31  40
ATOM     32  C   LIG    1       -8.200   4.420   0.314  0.00  0.00    +0.199 C 
ATOM     33  O   LIG    1       -8.817   3.647  -0.420  0.00  0.00    -0.278 OA
ATOM     34  C   LIG    1       -8.826   4.870   1.653  0.00  0.00    +0.018 C 
ATOM     35  N   LIG    1       -8.342   6.253   2.126  0.00  0.00    +0.385 N 
ATOM     36  H   LIG    1       -8.711   6.411   3.054  0.00  0.00    -0.081 HD
ATOM     37  C   LIG    1       -8.864   7.405   1.238  0.00  0.00    -0.095 C 
ATOM     38  C   LIG    1       -6.811   6.258   2.219  0.00  0.00    -0.059 C 
ATOM     39  C   LIG    1       -6.140   5.772   0.912  0.00  0.00    +0.089 C 
ATOM     40  N   LIG    1       -6.965   4.931   0.009  0.00  0.00    -0.300 N 
ENDBRANCH  31  40
ENDBRANCH   1  31
TORSDOF 9
