REMARK  Name = DB16252
REMARK                            x       y       z     vdW  Elec       q    Type
REMARK                         _______ _______ _______ _____ _____    ______ ____
ROOT
ATOM      1  C   LIG    1        1.906   1.276   0.427  0.00  0.00    +0.006 A 
ATOM      2  C   LIG    1        2.131   2.331   1.319  0.00  0.00    +0.021 A 
ATOM      3  C   LIG    1        2.713   3.535   0.904  0.00  0.00    +0.037 A 
ATOM      4  C   LIG    1        3.094   3.665  -0.440  0.00  0.00    +0.134 A 
ATOM      5  F   LIG    1        3.652   4.813  -0.890  0.00  0.00    -0.205 F 
ATOM      6  C   LIG    1        2.887   2.619  -1.336  0.00  0.00    +0.059 A 
ATOM      7  C   LIG    1        2.294   1.429  -0.916  0.00  0.00    +0.050 A 
ATOM      8 CL   LIG    1        2.057   0.180  -2.090  0.00  0.00    -0.083 Cl
ENDROOT
BRANCH   3   9
ATOM      9  C   LIG    1        2.904   4.644   1.880  0.00  0.00    +0.085 A 
ATOM     10  C   LIG    1        1.830   5.224   2.625  0.00  0.00    +0.027 A 
ATOM     11  C   LIG    1        0.465   4.864   2.513  0.00  0.00    +0.014 A 
ATOM     12  C   LIG    1       -0.495   5.499   3.296  0.00  0.00    +0.024 A 
ATOM     13  C   LIG    1       -0.164   6.514   4.204  0.00  0.00    +0.032 A 
ATOM     14  C   LIG    1        1.188   6.876   4.325  0.00  0.00    +0.051 A 
ATOM     15  C   LIG    1        2.192   6.255   3.544  0.00  0.00    +0.077 A 
ATOM     16  N   LIG    1        3.486   6.662   3.691  0.00  0.00    -0.235 NA
ATOM     17  C   LIG    1        4.412   6.042   2.919  0.00  0.00    +0.222 A 
ATOM     18  N   LIG    1        4.191   5.054   2.022  0.00  0.00    -0.235 NA
BRANCH  13  19
ATOM     19  N   LIG    1       -1.158   7.109   4.988  0.00  0.00    -0.325 N 
ATOM     20  C   LIG    1       -2.442   7.500   4.369  0.00  0.00    +0.133 C 
ATOM     21  C   LIG    1       -3.562   7.774   5.394  0.00  0.00    +0.178 C 
ATOM     22  O   LIG    1       -3.136   8.751   6.330  0.00  0.00    -0.377 OA
ATOM     23  C   LIG    1       -1.988   8.323   7.045  0.00  0.00    +0.178 C 
ATOM     24  C   LIG    1       -0.823   8.061   6.066  0.00  0.00    +0.133 C 
ENDBRANCH  13  19
ENDBRANCH   3   9
BRANCH   1  25
ATOM     25  C   LIG    1        1.233   0.001   0.952  0.00  0.00    +0.196 C 
BRANCH  25  29
ATOM     26  C   LIG    1       -2.746  -0.368  -0.491  0.00  0.00    +0.234 A 
ATOM     27  C   LIG    1       -1.875  -1.415  -0.790  0.00  0.00    +0.070 A 
ATOM     28  C   LIG    1       -0.561  -1.335  -0.335  0.00  0.00    +0.033 A 
ATOM     29  C   LIG    1       -0.183  -0.204   0.399  0.00  0.00    +0.097 A 
ATOM     30  N   LIG    1       -1.069   0.794   0.673  0.00  0.00    -0.148 NA
ATOM     31  N   LIG    1       -2.336   0.716   0.232  0.00  0.00    -0.111 NA
BRANCH  26  33
ATOM     32  C   LIG    1       -4.954   0.627  -0.649  0.00  0.00    +0.279 C 
ATOM     33  O   LIG    1       -4.051  -0.438  -0.943  0.00  0.00    -0.479 OA
ENDBRANCH  26  33
ENDBRANCH  25  29
BRANCH  25  34
ATOM     34  O   LIG    1        2.074  -1.133   0.831  0.00  0.00    -0.381 OA
ATOM     35  H   LIG    1        2.847  -0.999   1.383  0.00  0.00    +0.211 HD
ENDBRANCH  25  34
ENDBRANCH   1  25
TORSDOF 6
