REMARK  Name = DB16107
REMARK                            x       y       z     vdW  Elec       q    Type
REMARK                         _______ _______ _______ _____ _____    ______ ____
ROOT
ATOM      1  N   LIG    1        0.225   0.904   0.025  0.00  0.00    -0.281 N 
ATOM      2  H   LIG    1       -0.258   0.017   0.016  0.00  0.00    +0.155 HD
ENDROOT
BRANCH   1  11
ATOM      3  C   LIG    1       -5.095   3.412  -1.001  0.00  0.00    +0.161 C 
ATOM      4  C   LIG    1       -4.754   4.870  -0.530  0.00  0.00    +0.240 C 
ATOM      5  O   LIG    1       -5.601   5.766  -0.571  0.00  0.00    -0.273 OA
ATOM      6  N   LIG    1       -3.483   5.026  -0.058  0.00  0.00    -0.269 N 
ATOM      7  C   LIG    1       -3.066   6.374   0.369  0.00  0.00    +0.138 C 
ATOM      8  C   LIG    1       -2.498   4.014  -0.080  0.00  0.00    +0.095 A 
ATOM      9  C   LIG    1       -1.124   4.259   0.078  0.00  0.00    +0.141 A 
ATOM     10  N   LIG    1       -0.199   3.267   0.105  0.00  0.00    -0.221 NA
ATOM     11  C   LIG    1       -0.658   1.994  -0.012  0.00  0.00    +0.221 A 
ATOM     12  N   LIG    1       -1.964   1.659  -0.145  0.00  0.00    -0.197 NA
ATOM     13  C   LIG    1       -2.880   2.665  -0.193  0.00  0.00    +0.149 A 
ATOM     14  N   LIG    1       -4.245   2.394  -0.318  0.00  0.00    -0.299 N 
BRANCH  14  15
ATOM     15  C   LIG    1       -4.858   1.048  -0.369  0.00  0.00    +0.076 C 
ATOM     16  C   LIG    1       -4.467   0.197  -1.602  0.00  0.00    +0.022 C 
ATOM     17  C   LIG    1       -4.363  -1.239  -1.081  0.00  0.00    +0.002 C 
ATOM     18  C   LIG    1       -3.861  -1.088   0.351  0.00  0.00    +0.002 C 
ATOM     19  C   LIG    1       -4.570   0.167   0.871  0.00  0.00    +0.022 C 
ENDBRANCH  14  15
BRANCH   3  21
ATOM     20  C   LIG    1       -3.747   3.511  -3.269  0.00  0.00    +0.006 C 
ATOM     21  C   LIG    1       -5.109   3.382  -2.560  0.00  0.00    +0.028 C 
ENDBRANCH   3  21
ENDBRANCH   1  11
BRANCH   1  22
ATOM     22  C   LIG    1        1.628   0.758   0.053  0.00  0.00    +0.076 A 
ATOM     23  C   LIG    1        2.153  -0.529   0.269  0.00  0.00    +0.142 A 
ATOM     24  C   LIG    1        3.549  -0.708   0.286  0.00  0.00    +0.060 A 
ATOM     25  C   LIG    1        4.430   0.367   0.089  0.00  0.00    +0.040 A 
ATOM     26  C   LIG    1        3.885   1.636  -0.132  0.00  0.00    +0.015 A 
ATOM     27  C   LIG    1        2.507   1.830  -0.150  0.00  0.00    +0.028 A 
BRANCH  25  28
ATOM     28  C   LIG    1        5.934   0.185   0.093  0.00  0.00    +0.244 C 
ATOM     29  N   LIG    1        6.399  -0.982   0.587  0.00  0.00    -0.309 N 
ATOM     30  H   LIG    1        5.723  -1.631   0.961  0.00  0.00    +0.149 HD
ATOM     31  O   LIG    1        6.676   1.072  -0.332  0.00  0.00    -0.270 OA
BRANCH  29  32
ATOM     32  C   LIG    1        7.804  -1.375   0.731  0.00  0.00    +0.070 C 
ATOM     33  C   LIG    1        8.518  -1.691  -0.607  0.00  0.00    +0.003 C 
ATOM     34  C   LIG    1        9.978  -2.148  -0.437  0.00  0.00    -0.077 C 
ATOM     35  N   LIG    1       10.744  -1.092   0.386  0.00  0.00    +0.378 N 
ATOM     36  H   LIG    1       10.684  -0.206  -0.098  0.00  0.00    -0.082 HD
ATOM     37  C   LIG    1       12.228  -1.493   0.511  0.00  0.00    -0.096 C 
ATOM     38  C   LIG    1       10.121  -0.923   1.787  0.00  0.00    -0.077 C 
ATOM     39  C   LIG    1        8.664  -0.453   1.635  0.00  0.00    +0.003 C 
ENDBRANCH  29  32
ENDBRANCH  25  28
BRANCH  23  40
ATOM     40  O   LIG    1        1.254  -1.569   0.456  0.00  0.00    -0.493 OA
ATOM     41  C   LIG    1        1.733  -2.889   0.693  0.00  0.00    +0.277 C 
ENDBRANCH  23  40
ENDBRANCH   1  22
TORSDOF 7
