REMARK  Name = DB16049
REMARK                            x       y       z     vdW  Elec       q    Type
REMARK                         _______ _______ _______ _____ _____    ______ ____
ROOT
ATOM      1  C   LIG    1        1.373   0.129  -0.015  0.00  0.00    -0.012 A 
ATOM      2  C   LIG    1        1.966   1.282  -0.548  0.00  0.00    +0.049 A 
ATOM      3  C   LIG    1        3.351   1.402  -0.661  0.00  0.00    +0.148 A 
ATOM      4  F   LIG    1        3.861   2.521  -1.228  0.00  0.00    -0.203 F 
ATOM      5  C   LIG    1        4.187   0.364  -0.223  0.00  0.00    +0.104 A 
ATOM      6  C   LIG    1        3.606  -0.800   0.293  0.00  0.00    +0.148 A 
ATOM      7  F   LIG    1        4.379  -1.832   0.709  0.00  0.00    -0.203 F 
ATOM      8  C   LIG    1        2.219  -0.910   0.397  0.00  0.00    +0.049 A 
ENDROOT
BRANCH   1  13
ATOM      9  C   LIG    1       -2.151  -1.358   0.102  0.00  0.00    +0.121 A 
ATOM     10  C   LIG    1       -2.909  -0.210   0.337  0.00  0.00    +0.045 A 
ATOM     11  C   LIG    1       -2.295   1.033   0.455  0.00  0.00    +0.004 A 
ATOM     12  C   LIG    1       -0.911   1.140   0.340  0.00  0.00    +0.009 A 
ATOM     13  C   LIG    1       -0.114   0.010   0.106  0.00  0.00    -0.014 A 
ATOM     14  C   LIG    1       -0.755  -1.234  -0.012  0.00  0.00    +0.054 A 
BRANCH   9  16
ATOM     15  C   LIG    1       -2.125  -3.753  -0.242  0.00  0.00    +0.277 C 
ATOM     16  O   LIG    1       -2.845  -2.549  -0.004  0.00  0.00    -0.495 OA
ENDBRANCH   9  16
ENDBRANCH   1  13
BRANCH   5  17
ATOM     17  N   LIG    1        5.589   0.440  -0.316  0.00  0.00    -0.294 N 
ATOM     18  H   LIG    1        6.034  -0.392  -0.680  0.00  0.00    +0.154 HD
BRANCH  17  19
ATOM     19  C   LIG    1        6.497   1.454   0.053  0.00  0.00    +0.137 A 
ATOM     20  N   LIG    1        5.955   2.503   0.735  0.00  0.00    -0.239 NA
ATOM     21  C   LIG    1        6.743   3.532   1.115  0.00  0.00    +0.113 A 
ATOM     22  C   LIG    1        8.102   3.568   0.843  0.00  0.00    +0.021 A 
ATOM     23  C   LIG    1        8.666   2.497   0.157  0.00  0.00    +0.020 A 
ATOM     24  C   LIG    1        7.890   1.390  -0.259  0.00  0.00    +0.099 A 
BRANCH  24  25
ATOM     25  C   LIG    1        8.571   0.239  -0.991  0.00  0.00    +0.340 C 
ATOM     26  O   LIG    1        9.728   0.417  -1.444  0.00  0.00    -0.245 OA
BRANCH  25  27
ATOM     27  O   LIG    1        7.984  -0.860  -1.120  0.00  0.00    -0.477 OA
ATOM     28  H   LIG    1        8.404  -1.566  -1.570  0.00  0.00    +0.295 HD
ENDBRANCH  25  27
ENDBRANCH  24  25
ENDBRANCH  17  19
ENDBRANCH   5  17
TORSDOF 6
