REMARK  Name = DB16850
REMARK                            x       y       z     vdW  Elec       q    Type
REMARK                         _______ _______ _______ _____ _____    ______ ____
ROOT
ATOM      1  C   LIG    1       -1.976  -1.290   0.040  0.00  0.00    +0.151 A 
ATOM      2  N   LIG    1       -0.614  -1.282   0.001  0.00  0.00    -0.211 NA
ATOM      3  C   LIG    1        0.034  -0.097  -0.123  0.00  0.00    +0.159 A 
ATOM      4  C   LIG    1       -0.650   1.119  -0.203  0.00  0.00    +0.164 A 
ATOM      5  F   LIG    1        0.015   2.292  -0.325  0.00  0.00    -0.202 F 
ATOM      6  C   LIG    1       -2.044   1.108  -0.156  0.00  0.00    +0.057 A 
ATOM      7  C   LIG    1       -2.743  -0.104  -0.033  0.00  0.00    +0.068 A 
ATOM      8  C   LIG    1       -4.250  -0.112   0.019  0.00  0.00    +0.205 A 
ATOM      9  C   LIG    1       -4.845  -1.461   0.150  0.00  0.00    +0.122 A 
ATOM     10  C   LIG    1       -4.038  -2.553   0.212  0.00  0.00    +0.112 A 
ATOM     11  O   LIG    1       -4.907   0.929  -0.043  0.00  0.00    -0.286 OA
ATOM     12  N   LIG    1       -2.652  -2.532   0.164  0.00  0.00    -0.297 N 
ENDROOT
BRANCH  12  13
ATOM     13  C   LIG    1       -1.970  -3.767   0.199  0.00  0.00    +0.083 A 
ATOM     14  C   LIG    1       -1.950  -4.518   1.381  0.00  0.00    +0.032 A 
ATOM     15  C   LIG    1       -1.296  -5.749   1.425  0.00  0.00    +0.040 A 
ATOM     16  C   LIG    1       -0.666  -6.245   0.284  0.00  0.00    +0.126 A 
ATOM     17  F   LIG    1       -0.031  -7.438   0.327  0.00  0.00    -0.205 F 
ATOM     18  C   LIG    1       -0.693  -5.511  -0.901  0.00  0.00    +0.078 A 
ATOM     19  C   LIG    1       -1.346  -4.279  -0.950  0.00  0.00    +0.150 A 
ATOM     20  F   LIG    1       -1.368  -3.588  -2.114  0.00  0.00    -0.203 F 
ENDBRANCH  12  13
BRANCH   3  21
ATOM     21  N   LIG    1        1.428  -0.150  -0.173  0.00  0.00    -0.314 N 
ATOM     22  C   LIG    1        2.252  -0.535   0.965  0.00  0.00    +0.105 C 
ATOM     23  C   LIG    1        3.702  -0.453   0.502  0.00  0.00    +0.004 C 
ATOM     24  C   LIG    1        3.644  -0.869  -0.967  0.00  0.00    -0.056 C 
ATOM     25  C   LIG    1        2.155  -0.696  -1.317  0.00  0.00    +0.090 C 
BRANCH  24  26
ATOM     26  N   LIG    1        4.209  -2.258  -1.296  0.00  0.00    +0.381 N 
ATOM     27  H   LIG    1        4.131  -2.441  -2.286  0.00  0.00    -0.090 HD
ATOM     28  H   LIG    1        5.182  -2.311  -1.030  0.00  0.00    -0.090 HD
ATOM     29  H   LIG    1        3.696  -2.968  -0.793  0.00  0.00    -0.090 HD
ENDBRANCH  24  26
ENDBRANCH   3  21
BRANCH   9  30
ATOM     30  C   LIG    1       -6.359  -1.763   0.220  0.00  0.00    +0.342 C 
ATOM     31  O   LIG    1       -6.801  -1.987   1.370  0.00  0.00    -0.245 OA
BRANCH  30  32
ATOM     32  O   LIG    1       -6.950  -1.730  -0.884  0.00  0.00    -0.477 OA
ATOM     33  H   LIG    1       -7.870  -1.901  -0.928  0.00  0.00    +0.295 HD
ENDBRANCH  30  32
ENDBRANCH   9  30
TORSDOF 5
