REMARK  Name = DB16830
REMARK                            x       y       z     vdW  Elec       q    Type
REMARK                         _______ _______ _______ _____ _____    ______ ____
ROOT
ATOM      1  C   LIG    1        0.049  -0.004   0.000  0.00  0.00    +0.059 A 
ATOM      2  C   LIG    1       -0.726  -1.178   0.000  0.00  0.00    +0.018 A 
ATOM      3  C   LIG    1       -2.118  -1.130   0.000  0.00  0.00    +0.046 A 
ATOM      4  C   LIG    1       -2.794   0.087   0.000  0.00  0.00    +0.124 A 
ATOM      5  C   LIG    1       -2.040   1.268   0.000  0.00  0.00    +0.091 A 
ATOM      6  C   LIG    1       -0.643   1.232   0.000  0.00  0.00    +0.131 A 
ENDROOT
BRANCH   1   7
ATOM      7  C   LIG    1        1.562  -0.069   0.000  0.00  0.00    +0.164 C 
ATOM      8  O   LIG    1        2.287   0.927   0.000  0.00  0.00    -0.292 OA
ATOM      9  C   LIG    1        2.287  -1.422   0.000  0.00  0.00    +0.092 C 
ENDBRANCH   1   7
BRANCH   4  10
ATOM     10  O   LIG    1       -4.174   0.035   0.000  0.00  0.00    -0.495 OA
ATOM     11  C   LIG    1       -4.914   1.251   0.000  0.00  0.00    +0.277 C 
ENDBRANCH   4  10
BRANCH   6  12
ATOM     12  O   LIG    1       -0.003   2.447   0.000  0.00  0.00    -0.506 OA
ATOM     13  H   LIG    1       -0.609   3.192   0.000  0.00  0.00    +0.292 HD
ENDBRANCH   6  12
TORSDOF 3
