REMARK  Name = DB16911
REMARK                            x       y       z     vdW  Elec       q    Type
REMARK                         _______ _______ _______ _____ _____    ______ ____
ROOT
ATOM      1  C   LIG    1       -2.567  -0.721   1.293  0.00  0.00    +0.040 C 
ATOM      2  C   LIG    1       -1.938  -1.452   0.086  0.00  0.00    +0.131 C 
ATOM      3  N   LIG    1       -0.489  -1.235  -0.086  0.00  0.00    -0.288 N 
ATOM      4  C   LIG    1        0.050  -0.009  -0.332  0.00  0.00    +0.217 C 
ATOM      5  O   LIG    1       -0.645   1.005  -0.424  0.00  0.00    -0.276 OA
ATOM      6  C   LIG    1        0.305  -2.476  -0.127  0.00  0.00    +0.126 C 
ATOM      7  C   LIG    1       -0.432  -3.566   0.677  0.00  0.00    +0.031 C 
ATOM      8  C   LIG    1       -0.007  -5.012   0.327  0.00  0.00    +0.000 C 
ATOM      9  C   LIG    1       -0.864  -6.056   1.080  0.00  0.00    -0.078 C 
ATOM     10  N   LIG    1       -0.721  -5.810   2.605  0.00  0.00    +0.378 N 
ATOM     11  H   LIG    1        0.248  -5.972   2.841  0.00  0.00    -0.082 HD
ATOM     12  C   LIG    1       -1.591  -6.810   3.390  0.00  0.00    -0.096 C 
ATOM     13  C   LIG    1       -1.055  -4.357   3.033  0.00  0.00    -0.078 C 
ATOM     14  C   LIG    1       -0.180  -3.395   2.200  0.00  0.00    +0.000 C 
ATOM     15  S   LIG    1       -2.162  -3.235   0.234  0.00  0.00    -0.130 S 
ENDROOT
BRANCH   4  16
ATOM     16  C   LIG    1        1.579   0.109  -0.524  0.00  0.00    +0.101 C 
BRANCH  16  17
ATOM     17  C   LIG    1        2.116   1.535  -0.800  0.00  0.00    +0.046 C 
BRANCH  17  18
ATOM     18  C   LIG    1        3.593   1.666  -0.489  0.00  0.00    -0.022 A 
ATOM     19  C   LIG    1        4.196   1.724   0.819  0.00  0.00    +0.003 A 
ATOM     20  C   LIG    1        3.686   1.686   2.127  0.00  0.00    +0.010 A 
ATOM     21  C   LIG    1        4.568   1.766   3.204  0.00  0.00    +0.001 A 
ATOM     22  C   LIG    1        5.940   1.883   3.002  0.00  0.00    +0.002 A 
ATOM     23  C   LIG    1        6.495   1.926   1.723  0.00  0.00    +0.026 A 
ATOM     24  C   LIG    1        5.609   1.845   0.643  0.00  0.00    +0.047 A 
ATOM     25  N   LIG    1        5.835   1.858  -0.715  0.00  0.00    -0.360 N 
ATOM     26  H   LIG    1        6.722   1.934  -1.191  0.00  0.00    +0.165 HD
ATOM     27  C   LIG    1        4.644   1.752  -1.384  0.00  0.00    +0.087 A 
ENDBRANCH  17  18
ENDBRANCH  16  17
ENDBRANCH   4  16
TORSDOF 3
