REMARK  Name = DB16102
REMARK                            x       y       z     vdW  Elec       q    Type
REMARK                         _______ _______ _______ _____ _____    ______ ____
ROOT
ATOM      1  C   LIG    1        1.568   0.205  -0.010  0.00  0.00    +0.004 C 
ATOM      2  C   LIG    1        1.974  -1.273  -0.216  0.00  0.00    +0.020 C 
ENDROOT
BRANCH   1   3
ATOM      3  C   LIG    1        2.222   0.663   1.303  0.00  0.00    -0.016 C 
ATOM      4  C   LIG    1        1.641   0.780   2.517  0.00  0.00    +0.004 C 
BRANCH   4   5
ATOM      5  C   LIG    1        2.283   1.226   3.773  0.00  0.00    -0.025 A 
ATOM      6  C   LIG    1        3.623   1.633   3.835  0.00  0.00    +0.011 A 
ATOM      7  C   LIG    1        4.179   2.047   5.044  0.00  0.00    +0.046 A 
ATOM      8  C   LIG    1        3.398   2.056   6.197  0.00  0.00    +0.117 A 
ATOM      9  C   LIG    1        2.066   1.654   6.150  0.00  0.00    +0.046 A 
ATOM     10  C   LIG    1        1.512   1.240   4.941  0.00  0.00    +0.011 A 
BRANCH   8  11
ATOM     11  O   LIG    1        3.944   2.464   7.386  0.00  0.00    -0.507 OA
ATOM     12  H   LIG    1        4.865   2.722   7.306  0.00  0.00    +0.292 HD
ENDBRANCH   8  11
ENDBRANCH   4   5
ENDBRANCH   1   3
BRANCH   1  13
ATOM     13  C   LIG    1        2.195   0.999  -1.167  0.00  0.00    -0.024 C 
ATOM     14  C   LIG    1        1.583   1.500  -2.255  0.00  0.00    +0.005 C 
ENDBRANCH   1  13
BRANCH   1  15
ATOM     15  C   LIG    1        0.002   0.266   0.011  0.00  0.00    +0.019 C 
BRANCH  15  16
ATOM     16  C   LIG    1       -0.640   1.658   0.242  0.00  0.00    +0.028 C 
BRANCH  16  19
ATOM     17  C   LIG    1       -4.496   1.983  -0.606  0.00  0.00    +0.038 C 
ATOM     18  C   LIG    1       -2.987   2.095  -0.747  0.00  0.00    -0.080 C 
ATOM     19  C   LIG    1       -2.160   1.616   0.208  0.00  0.00    -0.028 C 
ATOM     20  C   LIG    1       -2.537   2.768  -2.036  0.00  0.00    +0.038 C 
ENDBRANCH  16  19
ENDBRANCH  15  16
ENDBRANCH   1  15
TORSDOF 7
