REMARK  Name = DB16279
REMARK                            x       y       z     vdW  Elec       q    Type
REMARK                         _______ _______ _______ _____ _____    ______ ____
ROOT
ATOM      1  N   LIG    1        1.325  -0.205   0.047  0.00  0.00    -0.205 N 
ATOM      2  C   LIG    1        2.072  -0.348   1.157  0.00  0.00    +0.347 A 
ATOM      3  O   LIG    1        1.705  -0.463   2.329  0.00  0.00    -0.245 OA
ATOM      4  N   LIG    1        3.322  -0.276   0.657  0.00  0.00    -0.273 N 
ATOM      5  C   LIG    1        3.243  -0.124  -0.688  0.00  0.00    +0.165 A 
ATOM      6  N   LIG    1        2.043  -0.043  -1.061  0.00  0.00    -0.148 NA
ENDROOT
BRANCH   5   7
ATOM      7  C   LIG    1        4.410  -0.035  -1.584  0.00  0.00    +0.019 A 
ATOM      8  C   LIG    1        5.486  -0.924  -1.458  0.00  0.00    +0.013 A 
ATOM      9  C   LIG    1        6.582  -0.822  -2.310  0.00  0.00    +0.021 A 
ATOM     10  C   LIG    1        6.603   0.161  -3.297  0.00  0.00    +0.041 A 
ATOM     11 CL   LIG    1        7.963   0.287  -4.351  0.00  0.00    -0.084 Cl
ATOM     12  C   LIG    1        5.531   1.039  -3.443  0.00  0.00    +0.021 A 
ATOM     13  C   LIG    1        4.434   0.938  -2.592  0.00  0.00    +0.013 A 
ENDBRANCH   5   7
BRANCH   1  14
ATOM     14  C   LIG    1       -0.139  -0.053   0.042  0.00  0.00    +0.226 C 
BRANCH  14  18
ATOM     15  C   LIG    1       -1.915   3.003  -0.096  0.00  0.00    +0.161 A 
ATOM     16  N   LIG    1       -0.646   3.469   0.166  0.00  0.00    -0.214 N 
ATOM     17  N   LIG    1        0.185   2.425   0.255  0.00  0.00    -0.148 NA
ATOM     18  C   LIG    1       -0.613   1.398   0.038  0.00  0.00    +0.173 A 
ATOM     19  N   LIG    1       -1.885   1.692  -0.178  0.00  0.00    -0.211 NA
BRANCH  16  20
ATOM     20  C   LIG    1       -0.163   4.784   0.322  0.00  0.00    +0.069 A 
ATOM     21  C   LIG    1       -0.769   5.659   1.230  0.00  0.00    +0.028 A 
ATOM     22  C   LIG    1       -0.283   6.958   1.379  0.00  0.00    +0.003 A 
ATOM     23  C   LIG    1        0.810   7.387   0.626  0.00  0.00    +0.020 A 
ATOM     24  C   LIG    1        1.424   6.515  -0.274  0.00  0.00    +0.043 A 
ATOM     25 CL   LIG    1        2.780   7.044  -1.202  0.00  0.00    -0.083 Cl
ATOM     26  C   LIG    1        0.941   5.215  -0.425  0.00  0.00    +0.047 A 
ENDBRANCH  16  20
BRANCH  15  28
ATOM     27  C   LIG    1       -4.479   3.120  -0.217  0.00  0.00    +0.046 C 
ATOM     28  C   LIG    1       -3.143   3.877  -0.343  0.00  0.00    +0.179 C 
BRANCH  28  29
ATOM     29  O   LIG    1       -3.062   4.420  -1.645  0.00  0.00    -0.384 OA
ATOM     30  H   LIG    1       -2.268   4.956  -1.703  0.00  0.00    +0.210 HD
ENDBRANCH  28  29
ENDBRANCH  15  28
ENDBRANCH  14  18
ENDBRANCH   1  14
BRANCH   4  31
ATOM     31  C   LIG    1        4.479  -0.183   1.566  0.00  0.00    +0.168 C 
BRANCH  31  32
ATOM     32  C   LIG    1        4.899   1.266   1.921  0.00  0.00    +0.238 C 
BRANCH  32  33
ATOM     33  C   LIG    1        5.876   1.335   3.116  0.00  0.00    +0.417 C 
ATOM     34  F   LIG    1        7.003   0.664   2.873  0.00  0.00    -0.168 F 
ATOM     35  F   LIG    1        5.332   0.815   4.217  0.00  0.00    -0.168 F 
ATOM     36  F   LIG    1        6.216   2.593   3.399  0.00  0.00    -0.168 F 
ENDBRANCH  32  33
BRANCH  32  37
ATOM     37  O   LIG    1        5.467   1.899   0.787  0.00  0.00    -0.381 OA
ATOM     38  H   LIG    1        4.835   1.857   0.066  0.00  0.00    +0.210 HD
ENDBRANCH  32  37
ENDBRANCH  31  32
ENDBRANCH   4  31
TORSDOF 10
