REMARK  Name = DB16892
REMARK                            x       y       z     vdW  Elec       q    Type
REMARK                         _______ _______ _______ _____ _____    ______ ____
ROOT
ATOM      1  O   LIG    1        0.108  -2.347  -0.027  0.00  0.00    -0.289 OA
ATOM      2  C   LIG    1       -0.548  -1.306  -0.033  0.00  0.00    +0.198 C 
ATOM      3  C   LIG    1       -2.081  -1.315  -0.197  0.00  0.00    +0.095 C 
ATOM      4  C   LIG    1       -2.787  -0.140   0.564  0.00  0.00    +0.016 C 
ATOM      5  C   LIG    1       -4.295  -0.096   0.206  0.00  0.00    +0.028 C 
ATOM      6  C   LIG    1       -5.006   1.141   0.806  0.00  0.00    +0.085 C 
ATOM      7  N   LIG    1       -4.327   2.422   0.536  0.00  0.00    -0.301 NA
ATOM      8  C   LIG    1       -4.723   2.958  -0.766  0.00  0.00    +0.105 C 
ATOM      9  C   LIG    1       -2.851   2.396   0.684  0.00  0.00    +0.068 C 
ATOM     10  C   LIG    1       -2.368   2.429   2.146  0.00  0.00    +0.055 C 
ATOM     11  C   LIG    1       -2.428   1.064   2.841  0.00  0.00    -0.038 A 
ATOM     12  C   LIG    1       -2.282   1.036   4.229  0.00  0.00    +0.008 A 
ATOM     13  C   LIG    1       -2.335  -0.149   4.943  0.00  0.00    +0.049 A 
ATOM     14  C   LIG    1       -2.566  -1.357   4.282  0.00  0.00    +0.162 A 
ATOM     15  C   LIG    1       -2.720  -1.343   2.890  0.00  0.00    +0.163 A 
ATOM     16  C   LIG    1       -2.618  -0.154   2.127  0.00  0.00    +0.008 A 
ATOM     17  C   LIG    1       -2.208   1.185  -0.031  0.00  0.00    +0.044 C 
ATOM     18  C   LIG    1       -0.675   1.164  -0.023  0.00  0.00    +0.028 C 
ATOM     19  C   LIG    1        0.059   0.034   0.025  0.00  0.00    +0.159 C 
ENDROOT
BRANCH  14  20
ATOM     20  O   LIG    1       -2.662  -2.578   4.931  0.00  0.00    -0.491 OA
ATOM     21  C   LIG    1       -2.504  -2.638   6.345  0.00  0.00    +0.277 C 
ENDBRANCH  14  20
BRANCH  15  22
ATOM     22  O   LIG    1       -3.014  -2.542   2.289  0.00  0.00    -0.503 OA
ATOM     23  H   LIG    1       -3.057  -3.264   2.921  0.00  0.00    +0.292 HD
ENDBRANCH  15  22
BRANCH  19  24
ATOM     24  O   LIG    1        1.413   0.092   0.036  0.00  0.00    -0.492 OA
ATOM     25  C   LIG    1        2.021  -0.166   1.299  0.00  0.00    +0.277 C 
ENDBRANCH  19  24
TORSDOF 3
