REMARK  Name = DB16735
REMARK                            x       y       z     vdW  Elec       q    Type
REMARK                         _______ _______ _______ _____ _____    ______ ____
ROOT
ATOM      1  O   LIG    1        0.046  -0.091   0.539  0.00  0.00    -0.438 OA
ENDROOT
BRANCH   1   2
ATOM      2  C   LIG    1       -0.758   1.017   0.372  0.00  0.00    +0.131 A 
ATOM      3  C   LIG    1       -1.584   1.083  -0.751  0.00  0.00    +0.046 A 
ATOM      4  C   LIG    1       -2.439   2.169  -0.932  0.00  0.00    +0.004 A 
ATOM      5  C   LIG    1       -2.472   3.197   0.010  0.00  0.00    +0.013 A 
ATOM      6  C   LIG    1       -1.643   3.154   1.138  0.00  0.00    +0.040 A 
ATOM      7  C   LIG    1       -0.808   2.042   1.323  0.00  0.00    +0.059 A 
BRANCH   6   8
ATOM      8  C   LIG    1       -1.698   4.271   2.152  0.00  0.00    +0.247 C 
ATOM      9  N   LIG    1       -0.536   4.845   2.563  0.00  0.00    -0.292 N 
ATOM     10  C   LIG    1        0.774   4.646   1.918  0.00  0.00    +0.142 C 
ATOM     11  C   LIG    1        1.683   5.687   2.580  0.00  0.00    +0.167 C 
ATOM     12  C   LIG    1        0.699   6.756   3.027  0.00  0.00    +0.213 C 
ATOM     13  F   LIG    1        1.199   7.493   4.020  0.00  0.00    -0.241 F 
ATOM     14  C   LIG    1       -0.525   5.978   3.500  0.00  0.00    +0.147 C 
ATOM     15  O   LIG    1       -2.801   4.637   2.564  0.00  0.00    -0.270 OA
BRANCH  11  16
ATOM     16  O   LIG    1        2.694   6.175   1.723  0.00  0.00    -0.387 OA
ATOM     17  H   LIG    1        2.313   6.843   1.148  0.00  0.00    +0.210 HD
ENDBRANCH  11  16
ENDBRANCH   6   8
ENDBRANCH   1   2
BRANCH   1  18
ATOM     18  C   LIG    1        1.420  -0.009   0.685  0.00  0.00    +0.221 A 
ATOM     19  C   LIG    1        2.133  -1.190   0.903  0.00  0.00    +0.069 A 
ATOM     20  C   LIG    1        3.525  -1.133   1.032  0.00  0.00    -0.058 A 
ATOM     21  C   LIG    1        4.164   0.109   0.960  0.00  0.00    +0.034 A 
ATOM     22  C   LIG    1        3.391   1.257   0.745  0.00  0.00    +0.148 A 
ATOM     23  N   LIG    1        2.039   1.204   0.602  0.00  0.00    -0.209 NA
BRANCH  22  24
ATOM     24  C   LIG    1        4.021   2.647   0.672  0.00  0.00    +0.434 C 
ATOM     25  F   LIG    1        3.442   3.391  -0.273  0.00  0.00    -0.164 F 
ATOM     26  F   LIG    1        5.326   2.582   0.404  0.00  0.00    -0.164 F 
ATOM     27  F   LIG    1        3.865   3.253   1.849  0.00  0.00    -0.164 F 
ENDBRANCH  22  24
BRANCH  20  28
ATOM     28  C   LIG    1        4.325  -2.399   1.292  0.00  0.00    -0.050 C 
BRANCH  28  29
ATOM     29  N   LIG    1        4.755  -3.125   0.013  0.00  0.00    +0.381 N 
ATOM     30  H   LIG    1        3.944  -3.389  -0.527  0.00  0.00    -0.090 HD
ATOM     31  H   LIG    1        5.345  -2.526  -0.547  0.00  0.00    -0.090 HD
ATOM     32  H   LIG    1        5.273  -3.960   0.246  0.00  0.00    -0.090 HD
ENDBRANCH  28  29
ENDBRANCH  20  28
ENDBRANCH   1  18
TORSDOF 7
