REMARK  Name = DB16874
REMARK                            x       y       z     vdW  Elec       q    Type
REMARK                         _______ _______ _______ _____ _____    ______ ____
ROOT
ATOM      1  C   LIG    1        1.437  -0.016  -0.045  0.00  0.00    +0.237 A 
ATOM      2  N   LIG    1        2.068  -0.951   0.708  0.00  0.00    -0.216 NA
ATOM      3  C   LIG    1        3.426  -0.925   0.715  0.00  0.00    +0.056 A 
ATOM      4  C   LIG    1        4.162  -1.977   1.533  0.00  0.00    +0.084 C 
ATOM      5  C   LIG    1        5.526  -1.441   1.996  0.00  0.00    +0.166 C 
ATOM      6  O   LIG    1        6.232  -1.013   0.834  0.00  0.00    -0.375 OA
ATOM      7  C   LIG    1        5.680   0.141   0.198  0.00  0.00    +0.200 C 
ATOM      8  C   LIG    1        4.154   0.079   0.042  0.00  0.00    +0.039 A 
ATOM      9  C   LIG    1        3.407   0.999  -0.720  0.00  0.00    +0.130 A 
ATOM     10  N   LIG    1        2.047   0.950  -0.775  0.00  0.00    -0.197 NA
ENDROOT
BRANCH   1  20
ATOM     11  C   LIG    1       -0.182  -2.487  -0.773  0.00  0.00    +0.064 C 
ATOM     12  C   LIG    1       -0.765  -1.141  -0.388  0.00  0.00    +0.025 A 
ATOM     13  C   LIG    1       -2.089  -0.766  -0.302  0.00  0.00    +0.032 A 
ATOM     14  C   LIG    1       -2.157   0.612   0.077  0.00  0.00    +0.013 A 
ATOM     15  C   LIG    1       -3.220   1.519   0.310  0.00  0.00    +0.046 A 
ATOM     16  C   LIG    1       -2.867   2.826   0.680  0.00  0.00    +0.014 A 
ATOM     17  C   LIG    1       -1.544   3.229   0.815  0.00  0.00    +0.003 A 
ATOM     18  C   LIG    1       -0.486   2.357   0.590  0.00  0.00    +0.027 A 
ATOM     19  C   LIG    1       -0.802   1.044   0.215  0.00  0.00    +0.058 A 
ATOM     20  N   LIG    1        0.024  -0.042  -0.072  0.00  0.00    -0.282 N 
BRANCH  15  21
ATOM     21  C   LIG    1       -4.679   1.136   0.195  0.00  0.00    +0.242 C 
ATOM     22  O   LIG    1       -5.045  -0.032   0.318  0.00  0.00    -0.270 OA
ATOM     23  N   LIG    1       -5.553   2.112  -0.077  0.00  0.00    -0.325 N 
ATOM     24  H   LIG    1       -6.535   1.899  -0.173  0.00  0.00    +0.145 HD
ATOM     25  H   LIG    1       -5.237   3.063  -0.192  0.00  0.00    +0.145 HD
ENDBRANCH  15  21
ENDBRANCH   1  20
BRANCH   9  26
ATOM     26  N   LIG    1        4.076   2.019  -1.420  0.00  0.00    -0.325 N 
ATOM     27  H   LIG    1        5.085   2.001  -1.457  0.00  0.00    +0.148 HD
BRANCH  26  28
ATOM     28  C   LIG    1        3.374   2.935  -2.312  0.00  0.00    +0.138 C 
BRANCH  28  29
ATOM     29  C   LIG    1        4.311   4.038  -2.772  0.00  0.00    -0.030 A 
ATOM     30  C   LIG    1        5.161   3.825  -3.861  0.00  0.00    +0.005 A 
ATOM     31  C   LIG    1        6.036   4.830  -4.266  0.00  0.00    +0.000 A 
ATOM     32  C   LIG    1        6.062   6.041  -3.577  0.00  0.00    +0.000 A 
ATOM     33  C   LIG    1        5.223   6.256  -2.485  0.00  0.00    +0.000 A 
ATOM     34  C   LIG    1        4.348   5.251  -2.079  0.00  0.00    +0.005 A 
ENDBRANCH  28  29
ENDBRANCH  26  28
ENDBRANCH   9  26
TORSDOF 5
