REMARK  Name = DB16271
REMARK                            x       y       z     vdW  Elec       q    Type
REMARK                         _______ _______ _______ _____ _____    ______ ____
ROOT
ATOM      1  C   LIG    1       -2.818   0.127  -0.121  0.00  0.00    +0.204 A 
ATOM      2  C   LIG    1       -2.034   1.168  -0.631  0.00  0.00    +0.166 A 
ATOM      3  C   LIG    1       -0.647   0.980  -0.742  0.00  0.00    +0.062 A 
ATOM      4  C   LIG    1       -0.037  -0.218  -0.347  0.00  0.00    +0.044 A 
ATOM      5  C   LIG    1       -0.850  -1.242   0.165  0.00  0.00    +0.062 A 
ATOM      6  C   LIG    1       -2.239  -1.081   0.285  0.00  0.00    +0.166 A 
ENDROOT
BRANCH   4   7
ATOM      7  C   LIG    1        1.463  -0.383  -0.489  0.00  0.00    +0.244 C 
ATOM      8  N   LIG    1        2.018  -1.431   0.150  0.00  0.00    -0.313 N 
ATOM      9  H   LIG    1        1.420  -2.007   0.725  0.00  0.00    +0.149 HD
ATOM     10  O   LIG    1        2.125   0.416  -1.154  0.00  0.00    -0.270 OA
BRANCH   8  11
ATOM     11  C   LIG    1        3.439  -1.790   0.134  0.00  0.00    +0.093 C 
BRANCH  11  12
ATOM     12  C   LIG    1        3.852  -2.842  -0.955  0.00  0.00    -0.046 C 
ATOM     13  C   LIG    1        2.978  -4.132  -0.850  0.00  0.00    +0.018 C 
ATOM     14  C   LIG    1        3.270  -4.923   0.443  0.00  0.00    +0.158 C 
ATOM     15  O   LIG    1        4.656  -5.261   0.484  0.00  0.00    -0.380 OA
ATOM     16  C   LIG    1        5.544  -4.143   0.489  0.00  0.00    +0.158 C 
ATOM     17  C   LIG    1        5.338  -3.281  -0.779  0.00  0.00    +0.018 C 
BRANCH  12  18
ATOM     18  N   LIG    1        3.673  -2.179  -2.369  0.00  0.00    +0.381 N 
ATOM     19  H   LIG    1        2.769  -1.730  -2.323  0.00  0.00    -0.082 HD
ATOM     20  C   LIG    1        3.587  -3.130  -3.588  0.00  0.00    -0.096 C 
ATOM     21  C   LIG    1        4.673  -1.043  -2.699  0.00  0.00    -0.096 C 
ENDBRANCH  12  18
ENDBRANCH  11  12
ENDBRANCH   8  11
ENDBRANCH   4   7
BRANCH   2  22
ATOM     22  O   LIG    1       -2.690   2.329  -1.000  0.00  0.00    -0.491 OA
ATOM     23  C   LIG    1       -1.944   3.417  -1.534  0.00  0.00    +0.277 C 
ENDBRANCH   2  22
BRANCH   6  24
ATOM     24  O   LIG    1       -3.091  -2.052   0.783  0.00  0.00    -0.491 OA
ATOM     25  C   LIG    1       -2.560  -3.304   1.204  0.00  0.00    +0.277 C 
ENDBRANCH   6  24
BRANCH   1  26
ATOM     26  O   LIG    1       -4.176   0.301   0.003  0.00  0.00    -0.485 OA
BRANCH  26  27
ATOM     27  C   LIG    1       -4.923  -0.091  -1.143  0.00  0.00    +0.229 C 
BRANCH  27  28
ATOM     28  C   LIG    1       -6.414   0.156  -0.869  0.00  0.00    +0.041 C 
BRANCH  28  30
ATOM     29  C   LIG    1       -8.805   0.002  -1.774  0.00  0.00    +0.004 C 
ATOM     30  C   LIG    1       -7.315  -0.239  -2.051  0.00  0.00    -0.000 C 
ENDBRANCH  28  30
ENDBRANCH  27  28
ENDBRANCH  26  27
ENDBRANCH   1  26
TORSDOF 10
