REMARK  Name = DB16458
REMARK                            x       y       z     vdW  Elec       q    Type
REMARK                         _______ _______ _______ _____ _____    ______ ____
ROOT
ATOM      1  N   LIG    1       -0.496   1.196  -0.152  0.00  0.00    -0.288 NA
ATOM      2  H   LIG    1        0.001   2.074  -0.107  0.00  0.00    +0.124 HD
ATOM      3  C   LIG    1       -1.858   1.220   0.013  0.00  0.00    +0.052 C 
ATOM      4  C   LIG    1       -2.516   2.446   0.258  0.00  0.00    +0.020 C 
ATOM      5  C   LIG    1       -3.887   2.446   0.490  0.00  0.00    +0.002 C 
ATOM      6  C   LIG    1       -4.599   1.251   0.501  0.00  0.00    +0.000 C 
ATOM      7  C   LIG    1       -3.961   0.036   0.254  0.00  0.00    +0.007 C 
ATOM      8  C   LIG    1       -2.564  -0.023  -0.039  0.00  0.00    +0.024 C 
ATOM      9  C   LIG    1       -1.834  -1.242  -0.315  0.00  0.00    +0.056 C 
ATOM     10  C   LIG    1       -0.433  -1.143  -0.406  0.00  0.00    +0.058 C 
ATOM     11  C   LIG    1        0.228   0.086  -0.337  0.00  0.00    +0.109 C 
ENDROOT
BRANCH   9  12
ATOM     12  N   LIG    1       -2.465  -2.485  -0.473  0.00  0.00    -0.294 NA
ATOM     13  C   LIG    1       -3.563  -2.596  -1.458  0.00  0.00    +0.083 C 
ATOM     14  C   LIG    1       -4.517  -3.767  -1.147  0.00  0.00    -0.000 C 
ATOM     15  C   LIG    1       -3.785  -5.122  -1.167  0.00  0.00    -0.069 C 
ATOM     16  C   LIG    1       -2.561  -5.001  -0.232  0.00  0.00    -0.000 C 
ATOM     17  C   LIG    1       -1.700  -3.750  -0.524  0.00  0.00    +0.083 C 
BRANCH  15  18
ATOM     18  N   LIG    1       -4.769  -6.184  -0.624  0.00  0.00    +0.384 N 
ATOM     19  H   LIG    1       -5.688  -5.901  -0.932  0.00  0.00    -0.085 HD
ATOM     20  H   LIG    1       -4.790  -6.103   0.382  0.00  0.00    -0.085 HD
BRANCH  18  21
ATOM     21  C   LIG    1       -4.626  -7.675  -1.027  0.00  0.00    -0.077 C 
ATOM     22  C   LIG    1       -3.234  -8.214  -0.636  0.00  0.00    -0.011 C 
ATOM     23  C   LIG    1       -4.871  -7.799  -2.547  0.00  0.00    -0.011 C 
ATOM     24  C   LIG    1       -5.726  -8.428  -0.249  0.00  0.00    -0.011 C 
ENDBRANCH  18  21
ENDBRANCH  15  18
ENDBRANCH   9  12
BRANCH  11  25
ATOM     25  N   LIG    1        1.636   0.235  -0.459  0.00  0.00    -0.292 NA
ATOM     26  H   LIG    1        2.038   1.160  -0.400  0.00  0.00    +0.124 HD
BRANCH  25  27
ATOM     27  C   LIG    1        2.550  -0.895  -0.664  0.00  0.00    +0.118 C 
BRANCH  27  28
ATOM     28  C   LIG    1        4.010  -0.483  -0.763  0.00  0.00    -0.033 A 
ATOM     29  C   LIG    1        4.579  -0.226  -2.013  0.00  0.00    +0.006 A 
ATOM     30  C   LIG    1        5.919   0.142  -2.104  0.00  0.00    +0.020 A 
ATOM     31  C   LIG    1        6.688   0.249  -0.946  0.00  0.00    +0.041 A 
ATOM     32 CL   LIG    1        8.348   0.705  -1.060  0.00  0.00    -0.084 Cl
ATOM     33  C   LIG    1        6.126  -0.012   0.303  0.00  0.00    +0.020 A 
ATOM     34  C   LIG    1        4.787  -0.381   0.395  0.00  0.00    +0.006 A 
ENDBRANCH  27  28
ENDBRANCH  25  27
ENDBRANCH  11  25
TORSDOF 6
