REMARK  Name = DB16949
REMARK                            x       y       z     vdW  Elec       q    Type
REMARK                         _______ _______ _______ _____ _____    ______ ____
ROOT
ATOM      1  C   LIG    1        0.390   0.724   2.696  0.00  0.00    +0.027 C 
ENDROOT
BRANCH   1   3
ATOM      2  C   LIG    1       -1.894   1.279   1.664  0.00  0.00    -0.027 C 
ATOM      3  C   LIG    1       -0.824   1.597   2.417  0.00  0.00    -0.031 C 
BRANCH   2   4
ATOM      4  C   LIG    1       -2.118  -0.007   0.889  0.00  0.00    +0.053 C 
BRANCH   4   5
ATOM      5  C   LIG    1       -3.121  -0.935   1.552  0.00  0.00    -0.027 C 
ATOM      6  C   LIG    1       -4.380  -1.194   1.148  0.00  0.00    -0.031 C 
BRANCH   6   7
ATOM      7  C   LIG    1       -5.106  -0.592  -0.044  0.00  0.00    +0.027 C 
BRANCH   7   8
ATOM      8  C   LIG    1       -5.228  -1.563  -1.230  0.00  0.00    +0.004 C 
BRANCH   8   9
ATOM      9  C   LIG    1       -5.998  -0.960  -2.418  0.00  0.00    +0.000 C 
BRANCH   9  10
ATOM     10  C   LIG    1       -6.097  -1.919  -3.618  0.00  0.00    -0.003 C 
ATOM     11  C   LIG    1       -6.879  -1.323  -4.796  0.00  0.00    +0.004 C 
ENDBRANCH   9  10
ENDBRANCH   8   9
ENDBRANCH   7   8
ENDBRANCH   6   7
ENDBRANCH   4   5
ENDBRANCH   2   4
ENDBRANCH   1   3
BRANCH   1  12
ATOM     12  C   LIG    1        1.689   1.211   2.030  0.00  0.00    +0.004 C 
BRANCH  12  13
ATOM     13  C   LIG    1        1.676   1.112   0.492  0.00  0.00    +0.000 C 
BRANCH  13  14
ATOM     14  C   LIG    1        3.009   1.545  -0.144  0.00  0.00    +0.000 C 
BRANCH  14  15
ATOM     15  C   LIG    1        3.008   1.444  -1.679  0.00  0.00    +0.001 C 
BRANCH  15  16
ATOM     16  C   LIG    1        4.356   1.858  -2.304  0.00  0.00    +0.011 C 
BRANCH  16  17
ATOM     17  C   LIG    1        4.416   1.726  -3.843  0.00  0.00    +0.120 C 
BRANCH  17  18
ATOM     18  C   LIG    1        3.577   2.739  -4.636  0.00  0.00    +0.307 C 
ATOM     19  O   LIG    1        2.982   3.675  -4.096  0.00  0.00    -0.251 OA
BRANCH  18  20
ATOM     20  O   LIG    1        3.591   2.470  -5.957  0.00  0.00    -0.465 OA
BRANCH  20  21
ATOM     21  C   LIG    1        2.881   3.293  -6.873  0.00  0.00    +0.229 C 
ATOM     22  C   LIG    1        3.118   2.789  -8.301  0.00  0.00    +0.048 C 
ENDBRANCH  20  21
ENDBRANCH  18  20
ENDBRANCH  17  18
ENDBRANCH  16  17
ENDBRANCH  15  16
ENDBRANCH  14  15
ENDBRANCH  13  14
ENDBRANCH  12  13
ENDBRANCH   1  12
TORSDOF 16
