REMARK  Name = DB16882
REMARK                            x       y       z     vdW  Elec       q    Type
REMARK                         _______ _______ _______ _____ _____    ______ ____
ROOT
ATOM      1  C   LIG    1       -2.263   4.820   4.835  0.00  0.00    +0.068 C 
ATOM      2  C   LIG    1       -1.675   6.203   5.249  0.00  0.00    +0.023 C 
ATOM      3  C   LIG    1       -3.825   4.947   4.898  0.00  0.00    +0.018 C 
ATOM      4  C   LIG    1       -4.650   3.908   4.114  0.00  0.00    +0.002 C 
ATOM      5  C   LIG    1       -4.090   3.664   2.705  0.00  0.00    +0.007 C 
ATOM      6  C   LIG    1       -2.585   3.245   2.666  0.00  0.00    -0.025 C 
ATOM      7  C   LIG    1       -2.367   1.893   3.414  0.00  0.00    +0.012 C 
ATOM      8  C   LIG    1       -2.152   3.151   1.128  0.00  0.00    +0.002 C 
ATOM      9  C   LIG    1       -2.810   1.960   0.347  0.00  0.00    +0.008 C 
ATOM     10  C   LIG    1       -1.923   0.710   0.113  0.00  0.00    +0.040 C 
ATOM     11  C   LIG    1       -0.425   1.036  -0.105  0.00  0.00    +0.094 C 
ATOM     12  C   LIG    1       -0.240   2.000  -1.279  0.00  0.00    -0.045 C 
ATOM     13  C   LIG    1       -0.061   1.701  -2.577  0.00  0.00    +0.010 C 
ATOM     14  C   LIG    1       -0.314   3.398  -0.662  0.00  0.00    +0.040 C 
ATOM     15  C   LIG    1        0.107   1.850   1.081  0.00  0.00    +0.047 C 
ATOM     16  C   LIG    1       -0.590   3.196   0.858  0.00  0.00    -0.019 C 
ATOM     17  C   LIG    1        0.064   4.355   1.642  0.00  0.00    +0.008 C 
ATOM     18  C   LIG    1       -0.265   4.290   3.133  0.00  0.00    +0.006 C 
ATOM     19  C   LIG    1       -1.798   4.433   3.358  0.00  0.00    +0.012 C 
ENDROOT
BRANCH   1  20
ATOM     20  C   LIG    1       -1.790   3.794   5.919  0.00  0.00    +0.316 C 
ATOM     21  O   LIG    1       -2.595   3.168   6.618  0.00  0.00    -0.250 OA
BRANCH  20  22
ATOM     22  O   LIG    1       -0.428   3.700   6.019  0.00  0.00    -0.432 OA
BRANCH  22  23
ATOM     23  C   LIG    1        0.094   2.807   6.968  0.00  0.00    +0.342 C 
ATOM     24  C   LIG    1        1.543   2.488   6.560  0.00  0.00    +0.214 C 
ATOM     25  C   LIG    1        2.222   1.616   7.645  0.00  0.00    +0.180 C 
ATOM     26  C   LIG    1        2.000   2.180   9.066  0.00  0.00    +0.177 C 
ATOM     27  C   LIG    1        0.504   2.532   9.283  0.00  0.00    +0.179 C 
ATOM     28  O   LIG    1        0.088   3.412   8.236  0.00  0.00    -0.331 OA
BRANCH  24  29
ATOM     29  O   LIG    1        1.597   1.845   5.297  0.00  0.00    -0.383 OA
ATOM     30  H   LIG    1        2.443   1.397   5.221  0.00  0.00    +0.210 HD
ENDBRANCH  24  29
BRANCH  26  31
ATOM     31  O   LIG    1        2.495   1.290  10.052  0.00  0.00    -0.386 OA
ATOM     32  H   LIG    1        2.036   0.451   9.968  0.00  0.00    +0.210 HD
ENDBRANCH  26  31
BRANCH  25  33
ATOM     33  O   LIG    1        3.601   1.433   7.365  0.00  0.00    -0.386 OA
ATOM     34  H   LIG    1        4.041   2.284   7.425  0.00  0.00    +0.210 HD
ENDBRANCH  25  33
BRANCH  27  35
ATOM     35  C   LIG    1        0.204   3.251  10.618  0.00  0.00    +0.190 C 
BRANCH  35  36
ATOM     36  O   LIG    1        0.255   2.366  11.720  0.00  0.00    -0.392 OA
ATOM     37  H   LIG    1        0.068   2.863  12.520  0.00  0.00    +0.210 HD
ENDBRANCH  35  36
ENDBRANCH  27  35
ENDBRANCH  22  23
ENDBRANCH  20  22
ENDBRANCH   1  20
BRANCH  11  38
ATOM     38  O   LIG    1        0.183  -0.253  -0.300  0.00  0.00    -0.338 OA
BRANCH  38  39
ATOM     39  C   LIG    1        1.573  -0.402  -0.192  0.00  0.00    +0.283 C 
ATOM     40  O   LIG    1        2.246   0.445  -1.087  0.00  0.00    -0.340 OA
ATOM     41  C   LIG    1        3.668   0.419  -0.936  0.00  0.00    +0.178 C 
ATOM     42  C   LIG    1        4.198  -0.994  -1.285  0.00  0.00    +0.177 C 
ATOM     43  C   LIG    1        3.442  -2.075  -0.478  0.00  0.00    +0.179 C 
ATOM     44  C   LIG    1        1.906  -1.865  -0.532  0.00  0.00    +0.208 C 
BRANCH  42  45
ATOM     45  O   LIG    1        5.601  -1.083  -1.097  0.00  0.00    -0.386 OA
ATOM     46  H   LIG    1        5.786  -1.083  -0.155  0.00  0.00    +0.210 HD
ENDBRANCH  42  45
BRANCH  43  47
ATOM     47  O   LIG    1        3.801  -3.370  -0.923  0.00  0.00    -0.386 OA
ATOM     48  H   LIG    1        3.122  -3.989  -0.642  0.00  0.00    +0.210 HD
ENDBRANCH  43  47
BRANCH  41  49
ATOM     49  C   LIG    1        4.262   1.562  -1.788  0.00  0.00    +0.190 C 
BRANCH  49  50
ATOM     50  O   LIG    1        3.998   1.390  -3.167  0.00  0.00    -0.392 OA
ATOM     51  H   LIG    1        3.052   1.469  -3.307  0.00  0.00    +0.210 HD
ENDBRANCH  49  50
ENDBRANCH  41  49
BRANCH  44  52
ATOM     52  O   LIG    1        1.262  -2.738   0.406  0.00  0.00    -0.338 OA
BRANCH  52  53
ATOM     53  C   LIG    1        0.483  -3.803  -0.076  0.00  0.00    +0.282 C 
ATOM     54  C   LIG    1       -0.861  -3.283  -0.625  0.00  0.00    +0.201 C 
ATOM     55  C   LIG    1       -1.688  -4.461  -1.196  0.00  0.00    +0.179 C 
ATOM     56  C   LIG    1       -0.846  -5.344  -2.144  0.00  0.00    +0.177 C 
ATOM     57  C   LIG    1        0.501  -5.724  -1.478  0.00  0.00    +0.178 C 
ATOM     58  O   LIG    1        1.169  -4.528  -1.065  0.00  0.00    -0.341 OA
BRANCH  54  59
ATOM     59  O   LIG    1       -1.584  -2.607   0.387  0.00  0.00    -0.384 OA
ATOM     60  H   LIG    1       -1.096  -1.814   0.626  0.00  0.00    +0.210 HD
ENDBRANCH  54  59
BRANCH  56  61
ATOM     61  O   LIG    1       -1.565  -6.494  -2.558  0.00  0.00    -0.386 OA
ATOM     62  H   LIG    1       -1.895  -6.947  -1.779  0.00  0.00    +0.210 HD
ENDBRANCH  56  61
BRANCH  55  63
ATOM     63  O   LIG    1       -2.869  -3.998  -1.830  0.00  0.00    -0.386 OA
ATOM     64  H   LIG    1       -3.220  -3.266  -1.318  0.00  0.00    +0.210 HD
ENDBRANCH  55  63
BRANCH  57  65
ATOM     65  C   LIG    1        1.446  -6.487  -2.431  0.00  0.00    +0.190 C 
BRANCH  65  66
ATOM     66  O   LIG    1        2.608  -6.914  -1.749  0.00  0.00    -0.392 OA
ATOM     67  H   LIG    1        3.180  -7.366  -2.374  0.00  0.00    +0.210 HD
ENDBRANCH  65  66
ENDBRANCH  57  65
ENDBRANCH  52  53
ENDBRANCH  44  52
ENDBRANCH  38  39
ENDBRANCH  11  38
TORSDOF 21
