REMARK  Name = DB16951
REMARK                            x       y       z     vdW  Elec       q    Type
REMARK                         _______ _______ _______ _____ _____    ______ ____
ROOT
ATOM      1  C   LIG    1       -0.797  -0.848  -1.164  0.00  0.00    +0.175 C 
ATOM      2  C   LIG    1       -0.080  -0.174   0.056  0.00  0.00    +0.138 C 
ATOM      3  C   LIG    1       -0.581  -0.703   1.429  0.00  0.00    -0.045 C 
ATOM      4  C   LIG    1       -2.114  -0.667   1.562  0.00  0.00    -0.027 C 
ATOM      5  C   LIG    1       -2.759  -1.508   0.447  0.00  0.00    -0.045 C 
ATOM      6  C   LIG    1       -2.340  -1.037  -0.977  0.00  0.00    +0.131 C 
ENDROOT
BRANCH   3   7
ATOM      7  N   LIG    1        0.023   0.144   2.568  0.00  0.00    +0.382 N 
ATOM      8  H   LIG    1       -0.258  -0.222   3.466  0.00  0.00    -0.090 HD
ATOM      9  H   LIG    1        1.032   0.130   2.515  0.00  0.00    -0.090 HD
ATOM     10  H   LIG    1       -0.289   1.102   2.497  0.00  0.00    -0.090 HD
ENDBRANCH   3   7
BRANCH   5  11
ATOM     11  N   LIG    1       -4.293  -1.432   0.605  0.00  0.00    +0.382 N 
ATOM     12  H   LIG    1       -4.743  -1.994  -0.104  0.00  0.00    -0.090 HD
ATOM     13  H   LIG    1       -4.572  -1.775   1.514  0.00  0.00    -0.090 HD
ATOM     14  H   LIG    1       -4.611  -0.478   0.507  0.00  0.00    -0.090 HD
ENDBRANCH   5  11
BRANCH   6  15
ATOM     15  O   LIG    1       -2.897  -1.895  -1.962  0.00  0.00    -0.391 OA
ATOM     16  H   LIG    1       -2.517  -2.771  -1.867  0.00  0.00    +0.210 HD
ENDBRANCH   6  15
BRANCH   1  17
ATOM     17  O   LIG    1       -0.526   0.011  -2.278  0.00  0.00    -0.340 OA
BRANCH  17  21
ATOM     18  C   LIG    1        0.707  -1.544  -5.162  0.00  0.00    +0.138 C 
ATOM     19  C   LIG    1        0.129  -0.248  -5.761  0.00  0.00    +0.175 C 
ATOM     20  C   LIG    1       -0.186   0.606  -4.535  0.00  0.00    +0.201 C 
ATOM     21  C   LIG    1       -0.656  -0.479  -3.579  0.00  0.00    +0.282 C 
ATOM     22  O   LIG    1        0.194  -1.560  -3.826  0.00  0.00    -0.344 OA
BRANCH  18  23
ATOM     23  C   LIG    1        2.259  -1.630  -5.142  0.00  0.00    -0.046 C 
ATOM     24  C   LIG    1        2.908  -1.707  -6.540  0.00  0.00    -0.012 C 
BRANCH  23  25
ATOM     25  N   LIG    1        2.703  -2.868  -4.343  0.00  0.00    +0.382 N 
ATOM     26  H   LIG    1        3.711  -2.908  -4.290  0.00  0.00    -0.090 HD
ATOM     27  H   LIG    1        2.322  -2.835  -3.409  0.00  0.00    -0.090 HD
ATOM     28  H   LIG    1        2.370  -3.707  -4.797  0.00  0.00    -0.090 HD
ENDBRANCH  23  25
ENDBRANCH  18  23
BRANCH  19  29
ATOM     29  O   LIG    1       -0.995  -0.504  -6.590  0.00  0.00    -0.387 OA
ATOM     30  H   LIG    1       -1.642  -1.009  -6.091  0.00  0.00    +0.210 HD
ENDBRANCH  19  29
BRANCH  20  31
ATOM     31  O   LIG    1       -1.168   1.615  -4.691  0.00  0.00    -0.384 OA
ATOM     32  H   LIG    1       -1.909   1.252  -5.182  0.00  0.00    +0.210 HD
ENDBRANCH  20  31
ENDBRANCH  17  21
ENDBRANCH   1  17
BRANCH   2  33
ATOM     33  O   LIG    1        1.357  -0.287   0.064  0.00  0.00    -0.349 OA
BRANCH  33  34
ATOM     34  C   LIG    1        2.110   0.165  -1.035  0.00  0.00    +0.239 C 
ATOM     35  C   LIG    1        3.622   0.052  -0.734  0.00  0.00    +0.014 C 
ATOM     36  C   LIG    1        4.083   1.106   0.306  0.00  0.00    +0.136 C 
ATOM     37  C   LIG    1        3.593   2.513  -0.105  0.00  0.00    +0.173 C 
ATOM     38  C   LIG    1        2.068   2.484  -0.404  0.00  0.00    +0.180 C 
ATOM     39  O   LIG    1        1.798   1.486  -1.402  0.00  0.00    -0.345 OA
BRANCH  35  40
ATOM     40  N   LIG    1        3.955  -1.369  -0.229  0.00  0.00    +0.385 N 
ATOM     41  H   LIG    1        3.688  -2.062  -0.913  0.00  0.00    -0.089 HD
ATOM     42  H   LIG    1        4.948  -1.447  -0.057  0.00  0.00    -0.089 HD
ATOM     43  H   LIG    1        3.464  -1.555   0.633  0.00  0.00    -0.089 HD
ENDBRANCH  35  40
BRANCH  36  44
ATOM     44  O   LIG    1        5.492   1.090   0.474  0.00  0.00    -0.391 OA
ATOM     45  H   LIG    1        5.760   1.915   0.890  0.00  0.00    +0.210 HD
ENDBRANCH  36  44
BRANCH  37  46
ATOM     46  O   LIG    1        3.936   3.466   0.888  0.00  0.00    -0.387 OA
ATOM     47  H   LIG    1        4.025   4.328   0.473  0.00  0.00    +0.210 HD
ENDBRANCH  37  46
BRANCH  38  48
ATOM     48  C   LIG    1        1.476   3.833  -0.901  0.00  0.00    +0.143 C 
ATOM     49  C   LIG    1        0.049   3.704  -1.472  0.00  0.00    +0.040 C 
BRANCH  48  50
ATOM     50  O   LIG    1        1.395   4.762   0.164  0.00  0.00    -0.389 OA
ATOM     51  H   LIG    1        2.267   4.874   0.549  0.00  0.00    +0.210 HD
ENDBRANCH  48  50
ENDBRANCH  38  48
ENDBRANCH  33  34
ENDBRANCH   2  33
TORSDOF 16
