REMARK  Name = DB16073
REMARK                            x       y       z     vdW  Elec       q    Type
REMARK                         _______ _______ _______ _____ _____    ______ ____
ROOT
ATOM      1  C   LIG    1       -3.195  -3.031  -0.317  0.00  0.00    +0.044 C 
ATOM      2  C   LIG    1       -3.289  -1.520  -0.165  0.00  0.00    -0.037 A 
ATOM      3  C   LIG    1       -2.159  -0.703  -0.021  0.00  0.00    +0.045 A 
ATOM      4  C   LIG    1       -0.703  -1.068   0.001  0.00  0.00    +0.248 C 
ATOM      5  N   LIG    1       -0.055   0.109   0.165  0.00  0.00    -0.289 N 
ATOM      6  C   LIG    1       -0.923   1.277   0.245  0.00  0.00    +0.144 C 
ATOM      7  O   LIG    1       -0.196  -2.184  -0.117  0.00  0.00    -0.270 OA
ATOM      8  C   LIG    1       -2.284   0.669   0.112  0.00  0.00    -0.017 A 
ATOM      9  C   LIG    1       -3.544   1.265   0.103  0.00  0.00    +0.019 A 
ATOM     10  C   LIG    1       -4.693   0.476  -0.045  0.00  0.00    +0.040 A 
ATOM     11  C   LIG    1       -4.552  -0.914  -0.174  0.00  0.00    +0.017 A 
ENDROOT
BRANCH  10  12
ATOM     12  C   LIG    1       -6.047   1.107  -0.075  0.00  0.00    +0.259 A 
ATOM     13  O   LIG    1       -7.130   0.325  -0.319  0.00  0.00    -0.333 OA
ATOM     14  N   LIG    1       -8.220   1.192  -0.305  0.00  0.00    -0.060 NA
ATOM     15  C   LIG    1       -7.663   2.358  -0.061  0.00  0.00    +0.186 A 
ATOM     16  N   LIG    1       -6.353   2.368   0.092  0.00  0.00    -0.190 NA
BRANCH  15  17
ATOM     17  C   LIG    1       -8.489   3.629   0.051  0.00  0.00    +0.164 C 
BRANCH  17  18
ATOM     18  N   LIG    1       -9.252   3.713   1.302  0.00  0.00    -0.299 NA
ATOM     19  C   LIG    1      -10.179   4.852   1.239  0.00  0.00    +0.066 C 
ATOM     20  C   LIG    1      -11.091   4.896   2.487  0.00  0.00    -0.067 C 
ATOM     21  N   LIG    1      -10.218   5.015   3.750  0.00  0.00    +0.381 N 
ATOM     22  H   LIG    1       -9.739   5.905   3.746  0.00  0.00    -0.086 HD
ATOM     23  H   LIG    1      -10.797   4.983   4.577  0.00  0.00    -0.086 HD
ATOM     24  C   LIG    1       -9.182   3.876   3.784  0.00  0.00    -0.067 C 
ATOM     25  C   LIG    1       -8.370   3.883   2.468  0.00  0.00    +0.066 C 
ENDBRANCH  17  18
ENDBRANCH  15  17
ENDBRANCH  10  12
BRANCH   5  26
ATOM     26  C   LIG    1        1.406   0.231   0.143  0.00  0.00    +0.143 C 
BRANCH  26  27
ATOM     27  C   LIG    1        1.963   0.798  -1.158  0.00  0.00    -0.030 A 
ATOM     28  C   LIG    1        1.640   0.212  -2.385  0.00  0.00    +0.009 A 
ATOM     29  C   LIG    1        2.145   0.743  -3.568  0.00  0.00    +0.046 A 
ATOM     30  C   LIG    1        2.985   1.868  -3.536  0.00  0.00    +0.130 A 
ATOM     31  C   LIG    1        3.308   2.441  -2.305  0.00  0.00    +0.046 A 
ATOM     32  C   LIG    1        2.801   1.912  -1.121  0.00  0.00    +0.009 A 
BRANCH  30  33
ATOM     33  O   LIG    1        3.534   2.470  -4.654  0.00  0.00    -0.406 OA
BRANCH  33  34
ATOM     34  C   LIG    1        3.230   1.989  -5.963  0.00  0.00    +0.575 C 
ATOM     35  F   LIG    1        1.926   2.079  -6.231  0.00  0.00    -0.133 F 
ATOM     36  F   LIG    1        3.666   0.741  -6.145  0.00  0.00    -0.133 F 
ATOM     37  F   LIG    1        3.873   2.769  -6.831  0.00  0.00    -0.133 F 
ENDBRANCH  33  34
ENDBRANCH  30  33
ENDBRANCH  26  27
ENDBRANCH   5  26
TORSDOF 7
