REMARK  Name = DB16937
REMARK                            x       y       z     vdW  Elec       q    Type
REMARK                         _______ _______ _______ _____ _____    ______ ____
ROOT
ATOM      1  C   LIG    1        1.345   0.084   0.207  0.00  0.00    +0.293 C 
ATOM      2  O   LIG    1        1.864  -0.354   1.236  0.00  0.00    -0.253 OA
ENDROOT
BRANCH   1   3
ATOM      3  C   LIG    1       -0.164   0.079   0.006  0.00  0.00    +0.039 C 
BRANCH   3   4
ATOM      4  N   LIG    1       -0.525   1.540   0.042  0.00  0.00    +0.387 N 
ATOM      5  H   LIG    1       -0.113   1.997  -0.759  0.00  0.00    -0.089 HD
ATOM      6  H   LIG    1       -1.531   1.634   0.014  0.00  0.00    -0.089 HD
ATOM      7  H   LIG    1       -0.163   1.947   0.892  0.00  0.00    -0.089 HD
ENDBRANCH   3   4
BRANCH   3   9
ATOM      8  C   LIG    1       -2.196  -0.908  -1.207  0.00  0.00    +0.006 C 
ATOM      9  C   LIG    1       -0.672  -0.690  -1.258  0.00  0.00    -0.021 C 
ATOM     10  C   LIG    1        0.030  -2.042  -1.516  0.00  0.00    +0.006 C 
ENDBRANCH   3   9
ENDBRANCH   1   3
BRANCH   1  11
ATOM     11  O   LIG    1        2.027   0.568  -0.867  0.00  0.00    -0.466 OA
BRANCH  11  12
ATOM     12  C   LIG    1        3.447   0.594  -0.876  0.00  0.00    +0.232 C 
BRANCH  12  13
ATOM     13  C   LIG    1        3.933   1.190  -2.210  0.00  0.00    +0.052 C 
BRANCH  13  14
ATOM     14  C   LIG    1        5.476   1.250  -2.353  0.00  0.00    +0.124 C 
BRANCH  14  15
ATOM     15  C   LIG    1        6.192  -0.123  -2.380  0.00  0.00    +0.305 C 
ATOM     16  O   LIG    1        5.584  -1.124  -2.826  0.00  0.00    -0.251 OA
BRANCH  15  17
ATOM     17  O   LIG    1        7.377  -0.143  -1.978  0.00  0.00    -0.481 OA
ATOM     18  H   LIG    1        7.856  -0.948  -1.973  0.00  0.00    +0.295 HD
ENDBRANCH  15  17
ENDBRANCH  14  15
ENDBRANCH  13  14
ENDBRANCH  12  13
ENDBRANCH  11  12
ENDBRANCH   1  11
TORSDOF 9
