REMARK  Name = DB16143
REMARK                            x       y       z     vdW  Elec       q    Type
REMARK                         _______ _______ _______ _____ _____    ______ ____
ROOT
ATOM      1  C   LIG    1        2.012   0.049  -0.084  0.00  0.00    +0.000 A 
ATOM      2  C   LIG    1        2.772   0.642  -1.111  0.00  0.00    +0.000 A 
ATOM      3  C   LIG    1        4.175   0.599  -1.038  0.00  0.00    +0.000 A 
ATOM      4  C   LIG    1        4.817  -0.019   0.032  0.00  0.00    +0.000 A 
ATOM      5  C   LIG    1        4.083  -0.613   1.062  0.00  0.00    +0.000 A 
ATOM      6  C   LIG    1        2.691  -0.563   0.975  0.00  0.00    +0.000 A 
ENDROOT
BRANCH   1   8
ATOM      7  C   LIG    1       -0.581   1.783  -0.008  0.00  0.00    +0.000 C 
ATOM      8 SI   LIG    1        0.114   0.028  -0.049  0.00  0.00    +0.000 Si
ATOM      9  C   LIG    1       -0.581  -0.885  -1.548  0.00  0.00    +0.000 C 
ATOM     10  C   LIG    1       -0.563  -0.853   1.477  0.00  0.00    +0.000 C 
ENDBRANCH   1   8
BRANCH   2  11
ATOM     11  N   LIG    1        2.058   1.253  -2.170  0.00  0.00    +0.000 N 
ATOM     12  H   LIG    1        1.057   1.192  -2.064  0.00  0.00    +0.000 HD
ATOM     13  C   LIG    1        2.487   1.898  -3.287  0.00  0.00    +0.000 C 
ATOM     14  O   LIG    1        3.683   2.046  -3.543  0.00  0.00    +0.000 OA
BRANCH  13  15
ATOM     15  C   LIG    1        1.441   2.417  -4.186  0.00  0.00    +0.000 A 
ATOM     16  C   LIG    1        1.800   3.149  -5.454  0.00  0.00    +0.000 A 
ATOM     17  O   LIG    1        2.948   3.376  -5.847  0.00  0.00    +0.000 OA
ATOM     18  C   LIG    1        0.613   3.621  -6.271  0.00  0.00    +0.000 A 
ATOM     19  C   LIG    1        0.812   4.316  -7.476  0.00  0.00    +0.000 A 
ATOM     20  C   LIG    1       -0.269   4.757  -8.239  0.00  0.00    +0.000 A 
ATOM     21  C   LIG    1       -1.573   4.512  -7.814  0.00  0.00    +0.000 A 
ATOM     22  C   LIG    1       -1.799   3.824  -6.624  0.00  0.00    +0.000 A 
ATOM     23  C   LIG    1       -0.716   3.384  -5.862  0.00  0.00    +0.000 A 
ATOM     24  N   LIG    1       -0.930   2.693  -4.664  0.00  0.00    +0.000 N 
ATOM     25  H   LIG    1       -1.879   2.520  -4.365  0.00  0.00    +0.000 HD
ATOM     26  C   LIG    1        0.117   2.248  -3.894  0.00  0.00    +0.000 A 
ENDBRANCH  13  15
ENDBRANCH   2  11
BRANCH   5  27
ATOM     27 SI   LIG    1        4.908  -1.464   2.536  0.00  0.00    +0.000 Si
ATOM     28  C   LIG    1        3.644  -2.165   3.750  0.00  0.00    +0.000 C 
ATOM     29  C   LIG    1        5.990  -0.251   3.491  0.00  0.00    +0.000 C 
ATOM     30  C   LIG    1        5.990  -2.898   1.963  0.00  0.00    +0.000 C 
ENDBRANCH   5  27
BRANCH   4  31
ATOM     31  O   LIG    1        6.188  -0.032   0.055  0.00  0.00    +0.000 OA
ATOM     32  H   LIG    1        6.578   0.407  -0.705  0.00  0.00    +0.000 HD
ENDBRANCH   4  31
TORSDOF 5
