REMARK  Name = DB16110
REMARK                            x       y       z     vdW  Elec       q    Type
REMARK                         _______ _______ _______ _____ _____    ______ ____
ROOT
ATOM      1  C   LIG    1       -2.621   1.012  -2.566  0.00  0.00    +0.011 C 
ATOM      2  C   LIG    1       -2.766   1.979  -1.365  0.00  0.00    -0.031 C 
ATOM      3  C   LIG    1       -1.955   3.277  -1.705  0.00  0.00    +0.013 C 
ATOM      4  C   LIG    1       -0.460   3.421  -1.247  0.00  0.00    -0.031 C 
ATOM      5  C   LIG    1        0.411   2.998  -2.452  0.00  0.00    +0.011 C 
ATOM      6  C   LIG    1       -0.180   4.897  -0.863  0.00  0.00    +0.011 C 
ATOM      7  C   LIG    1       -0.098   2.539  -0.013  0.00  0.00    +0.037 C 
ATOM      8  C   LIG    1       -0.728   1.145  -0.079  0.00  0.00    -0.060 C 
ATOM      9  C   LIG    1       -0.031  -0.025  -0.074  0.00  0.00    -0.011 C 
ATOM     10  C   LIG    1       -2.252   1.271  -0.081  0.00  0.00    +0.037 C 
ATOM     11  C   LIG    1       -4.253   2.351  -1.131  0.00  0.00    +0.011 C 
ENDROOT
BRANCH   9  12
ATOM     12  C   LIG    1       -0.666  -1.367  -0.050  0.00  0.00    -0.017 A 
ATOM     13  C   LIG    1       -0.385  -2.294  -1.056  0.00  0.00    +0.009 A 
ATOM     14  C   LIG    1       -0.965  -3.559  -1.033  0.00  0.00    +0.015 A 
ATOM     15  C   LIG    1       -1.840  -3.942   0.002  0.00  0.00    +0.059 A 
ATOM     16  C   LIG    1       -2.103  -2.999   1.014  0.00  0.00    +0.015 A 
ATOM     17  C   LIG    1       -1.523  -1.734   0.990  0.00  0.00    +0.009 A 
BRANCH  15  18
ATOM     18  C   LIG    1       -2.472  -5.320   0.027  0.00  0.00    +0.337 C 
ATOM     19  O   LIG    1       -2.192  -6.131  -0.888  0.00  0.00    -0.245 OA
BRANCH  18  20
ATOM     20  O   LIG    1       -3.257  -5.609   0.962  0.00  0.00    -0.477 OA
ATOM     21  H   LIG    1       -3.657  -6.455   0.993  0.00  0.00    +0.295 HD
ENDBRANCH  18  20
ENDBRANCH  15  18
ENDBRANCH   9  12
BRANCH   9  22
ATOM     22  C   LIG    1        1.448  -0.063  -0.068  0.00  0.00    -0.017 A 
ATOM     23  C   LIG    1        2.127  -0.393   1.110  0.00  0.00    +0.012 A 
ATOM     24  C   LIG    1        3.519  -0.450   1.123  0.00  0.00    +0.046 A 
ATOM     25  C   LIG    1        4.232  -0.185  -0.045  0.00  0.00    +0.117 A 
ATOM     26  C   LIG    1        3.563   0.130  -1.226  0.00  0.00    +0.046 A 
ATOM     27  C   LIG    1        2.172   0.185  -1.238  0.00  0.00    +0.012 A 
BRANCH  25  28
ATOM     28  O   LIG    1        5.600  -0.242  -0.036  0.00  0.00    -0.507 OA
ATOM     29  H   LIG    1        5.957  -0.476   0.824  0.00  0.00    +0.292 HD
ENDBRANCH  25  28
ENDBRANCH   9  22
TORSDOF 5
