REMARK  Name = DB16741
REMARK                            x       y       z     vdW  Elec       q    Type
REMARK                         _______ _______ _______ _____ _____    ______ ____
ROOT
ATOM      1  C   LIG    1        0.124   0.200  -0.249  0.00  0.00    +0.000 C 
ENDROOT
BRANCH   1   2
ATOM      2  B   LIG    1        1.700   0.287  -0.337  0.00  0.00    +0.000 B 
ATOM      3  O   LIG    1        2.480   0.995   0.546  0.00  0.00    +0.000 OA
ATOM      4  C   LIG    1        3.835   0.679   0.275  0.00  0.00    +0.000 C 
ATOM      5  C   LIG    1        3.769   0.241  -1.210  0.00  0.00    +0.000 C 
ATOM      6  O   LIG    1        2.463  -0.295  -1.318  0.00  0.00    +0.000 OA
BRANCH   4   7
ATOM      7  C   LIG    1        4.717   1.925   0.565  0.00  0.00    +0.000 C 
BRANCH   7   8
ATOM      8  O   LIG    1        6.060   1.681   0.190  0.00  0.00    +0.000 OA
ATOM      9  H   LIG    1        6.426   1.025   0.789  0.00  0.00    +0.000 HD
ENDBRANCH   7   8
BRANCH   7  10
ATOM     10  C   LIG    1        4.688   2.410   2.034  0.00  0.00    +0.000 C 
BRANCH  10  11
ATOM     11  O   LIG    1        5.100   1.405   2.942  0.00  0.00    +0.000 OA
ATOM     12  H   LIG    1        5.057   1.761   3.833  0.00  0.00    +0.000 HD
ENDBRANCH  10  11
ENDBRANCH   7  10
ENDBRANCH   4   7
BRANCH   5  13
ATOM     13  C   LIG    1        4.835  -0.794  -1.670  0.00  0.00    +0.000 C 
BRANCH  13  14
ATOM     14  O   LIG    1        4.784  -0.898  -3.083  0.00  0.00    +0.000 OA
ATOM     15  H   LIG    1        4.898  -0.022  -3.458  0.00  0.00    +0.000 HD
ENDBRANCH  13  14
BRANCH  13  16
ATOM     16  C   LIG    1        4.699  -2.207  -1.047  0.00  0.00    +0.000 C 
BRANCH  16  17
ATOM     17  O   LIG    1        5.846  -2.994  -1.304  0.00  0.00    +0.000 OA
ATOM     18  H   LIG    1        5.705  -3.869  -0.936  0.00  0.00    +0.000 HD
ENDBRANCH  16  17
ENDBRANCH  13  16
ENDBRANCH   5  13
ENDBRANCH   1   2
BRANCH   1  19
ATOM     19  N   LIG    1       -0.389   1.567  -0.142  0.00  0.00    +0.000 N 
ATOM     20  H   LIG    1        0.077   2.260  -0.710  0.00  0.00    +0.000 HD
ATOM     21  C   LIG    1       -1.403   1.965   0.644  0.00  0.00    +0.000 C 
ATOM     22  O   LIG    1       -2.028   1.222   1.403  0.00  0.00    +0.000 OA
BRANCH  21  23
ATOM     23  C   LIG    1       -1.774   3.463   0.568  0.00  0.00    +0.000 C 
BRANCH  23  24
ATOM     24  N   LIG    1       -3.068   3.655  -0.096  0.00  0.00    +0.000 N 
ATOM     25  H   LIG    1       -3.810   3.999   0.496  0.00  0.00    +0.000 HD
ATOM     26  C   LIG    1       -3.353   3.388  -1.389  0.00  0.00    +0.000 C 
ATOM     27  O   LIG    1       -2.514   2.960  -2.185  0.00  0.00    +0.000 OA
BRANCH  26  28
ATOM     28  C   LIG    1       -4.775   3.645  -1.837  0.00  0.00    +0.000 A 
ATOM     29  N   LIG    1       -5.667   4.175  -0.947  0.00  0.00    +0.000 NA
ATOM     30  C   LIG    1       -6.938   4.396  -1.373  0.00  0.00    +0.000 A 
ATOM     31  C   LIG    1       -7.329   4.093  -2.678  0.00  0.00    +0.000 A 
ATOM     32  N   LIG    1       -6.455   3.565  -3.574  0.00  0.00    +0.000 NA
ATOM     33  C   LIG    1       -5.183   3.344  -3.148  0.00  0.00    +0.000 A 
ENDBRANCH  26  28
ENDBRANCH  23  24
BRANCH  23  34
ATOM     34  C   LIG    1       -1.809   4.160   1.952  0.00  0.00    +0.000 C 
BRANCH  34  35
ATOM     35  C   LIG    1       -0.497   4.183   2.723  0.00  0.00    +0.000 A 
ATOM     36  C   LIG    1        0.489   5.144   2.415  0.00  0.00    +0.000 A 
ATOM     37  C   LIG    1        1.713   5.118   3.071  0.00  0.00    +0.000 A 
ATOM     38  C   LIG    1        1.983   4.130   4.010  0.00  0.00    +0.000 A 
ATOM     39  C   LIG    1        1.041   3.147   4.286  0.00  0.00    +0.000 A 
ATOM     40  C   LIG    1       -0.189   3.157   3.642  0.00  0.00    +0.000 A 
ENDBRANCH  34  35
ENDBRANCH  23  34
ENDBRANCH  21  23
ENDBRANCH   1  19
BRANCH   1  41
ATOM     41  C   LIG    1       -0.493  -0.564  -1.452  0.00  0.00    +0.000 C 
BRANCH  41  42
ATOM     42  C   LIG    1       -2.020  -0.826  -1.407  0.00  0.00    +0.000 C 
ATOM     43  C   LIG    1       -2.529  -1.356  -2.760  0.00  0.00    +0.000 C 
ATOM     44  C   LIG    1       -2.423  -1.780  -0.265  0.00  0.00    +0.000 C 
ENDBRANCH  41  42
ENDBRANCH   1  41
TORSDOF 17
