REMARK  Name = DB16217
REMARK                            x       y       z     vdW  Elec       q    Type
REMARK                         _______ _______ _______ _____ _____    ______ ____
ROOT
ATOM      1  C   LIG    1        1.551   0.077   0.238  0.00  0.00    +0.127 A 
ATOM      2  N   LIG    1        2.242   1.204   0.570  0.00  0.00    -0.221 NA
ATOM      3  C   LIG    1        3.593   1.136   0.487  0.00  0.00    +0.223 A 
ATOM      4  N   LIG    1        4.311   0.058   0.095  0.00  0.00    -0.240 NA
ATOM      5  C   LIG    1        3.602  -1.048  -0.256  0.00  0.00    +0.052 A 
ATOM      6  C   LIG    1        4.324  -2.298  -0.713  0.00  0.00    +0.075 C 
ATOM      7  C   LIG    1        3.693  -3.548  -0.059  0.00  0.00    +0.111 C 
ATOM      8  N   LIG    1        2.217  -3.651  -0.113  0.00  0.00    -0.324 N 
ATOM      9  C   LIG    1        1.508  -2.419  -0.529  0.00  0.00    +0.145 C 
ATOM     10  C   LIG    1        2.204  -1.102  -0.172  0.00  0.00    +0.031 A 
ENDROOT
BRANCH   8  11
ATOM     11  C   LIG    1        1.544  -4.828   0.229  0.00  0.00    +0.049 A 
ATOM     12  C   LIG    1        0.175  -5.009  -0.036  0.00  0.00    +0.042 A 
ATOM     13  C   LIG    1       -0.485  -6.195   0.318  0.00  0.00    +0.118 A 
ATOM     14  C   LIG    1        0.263  -7.203   0.942  0.00  0.00    +0.226 A 
ATOM     15  N   LIG    1        1.593  -7.059   1.203  0.00  0.00    -0.219 NA
ATOM     16  C   LIG    1        2.201  -5.902   0.850  0.00  0.00    +0.137 A 
BRANCH  13  17
ATOM     17  C   LIG    1       -1.976  -6.384   0.030  0.00  0.00    +0.422 C 
ATOM     18  F   LIG    1       -2.630  -6.601   1.172  0.00  0.00    -0.166 F 
ATOM     19  F   LIG    1       -2.150  -7.438  -0.768  0.00  0.00    -0.166 F 
ATOM     20  F   LIG    1       -2.523  -5.321  -0.562  0.00  0.00    -0.166 F 
ENDBRANCH  13  17
BRANCH  14  21
ATOM     21  O   LIG    1       -0.363  -8.385   1.304  0.00  0.00    -0.479 OA
ATOM     22  C   LIG    1        0.385  -9.422   1.936  0.00  0.00    +0.279 C 
ENDBRANCH  14  21
ENDBRANCH   8  11
BRANCH   1  23
ATOM     23  N   LIG    1        0.148   0.087   0.331  0.00  0.00    -0.324 N 
ATOM     24  H   LIG    1       -0.351  -0.732   0.016  0.00  0.00    +0.148 HD
BRANCH  23  28
ATOM     25  C   LIG    1       -3.650   0.167  -1.126  0.00  0.00    +0.215 C 
ATOM     26  N   LIG    1       -2.603   0.910  -0.696  0.00  0.00    -0.300 N 
ATOM     27  C   LIG    1       -2.118   0.957   0.688  0.00  0.00    +0.130 C 
ATOM     28  C   LIG    1       -0.632   1.309   0.544  0.00  0.00    +0.090 C 
ATOM     29  C   LIG    1       -0.641   2.213  -0.691  0.00  0.00    +0.043 C 
ATOM     30  C   LIG    1       -1.728   1.650  -1.613  0.00  0.00    +0.109 C 
ATOM     31  O   LIG    1       -3.963   0.108  -2.317  0.00  0.00    -0.276 OA
BRANCH  25  33
ATOM     32  C   LIG    1       -5.717  -1.328  -0.642  0.00  0.00    +0.013 C 
ATOM     33  C   LIG    1       -4.477  -0.608  -0.078  0.00  0.00    +0.092 C 
ENDBRANCH  25  33
ENDBRANCH  23  28
ENDBRANCH   1  23
TORSDOF 6
