REMARK  Name = DB16824
REMARK                            x       y       z     vdW  Elec       q    Type
REMARK                         _______ _______ _______ _____ _____    ______ ____
ROOT
ATOM      1  C   LIG    1       -0.702   0.760   5.209  0.00  0.00    +0.176 A 
ATOM      2  C   LIG    1       -0.437  -0.520   4.719  0.00  0.00    +0.208 A 
ATOM      3  O   LIG    1       -1.095  -1.238   3.768  0.00  0.00    -0.449 OA
ATOM      4  C   LIG    1       -0.301  -2.367   3.529  0.00  0.00    +0.467 C 
ATOM      5  O   LIG    1        0.609  -2.475   4.589  0.00  0.00    -0.452 OA
ATOM      6  C   LIG    1        0.593  -1.264   5.204  0.00  0.00    +0.170 A 
ATOM      7  C   LIG    1        1.409  -0.799   6.223  0.00  0.00    +0.053 A 
ATOM      8  C   LIG    1        1.194   0.493   6.732  0.00  0.00    -0.040 A 
ATOM      9  C   LIG    1        2.011   0.957   7.938  0.00  0.00    +0.017 C 
ATOM     10  C   LIG    1        1.981   2.471   8.206  0.00  0.00    -0.074 C 
ATOM     11  N   LIG    1        0.542   2.996   8.011  0.00  0.00    +0.383 N 
ATOM     12  H   LIG    1       -0.058   2.440   8.603  0.00  0.00    -0.081 HD
ATOM     13  C   LIG    1        0.429   4.455   8.501  0.00  0.00    -0.095 C 
ATOM     14  C   LIG    1        0.032   2.801   6.556  0.00  0.00    -0.030 C 
ATOM     15  C   LIG    1        0.747   3.799   5.579  0.00  0.00    +0.024 C 
ATOM     16  C   LIG    1        0.574   3.492   4.096  0.00  0.00    -0.048 A 
ATOM     17  C   LIG    1       -0.533   3.975   3.393  0.00  0.00    +0.007 A 
ATOM     18  C   LIG    1       -0.722   3.608   2.062  0.00  0.00    +0.046 A 
ATOM     19  C   LIG    1        0.192   2.759   1.434  0.00  0.00    +0.129 A 
ATOM     20  O   LIG    1       -0.049   2.324   0.151  0.00  0.00    -0.452 OA
ATOM     21  C   LIG    1       -0.706   1.120   0.037  0.00  0.00    +0.170 A 
ATOM     22  C   LIG    1       -2.103   1.109   0.031  0.00  0.00    +0.053 A 
ATOM     23  C   LIG    1       -2.809  -0.098   0.047  0.00  0.00    -0.045 A 
ATOM     24  C   LIG    1       -4.335  -0.132   0.124  0.00  0.00    +0.024 C 
ATOM     25  C   LIG    1       -5.003   0.851   1.133  0.00  0.00    -0.033 C 
ATOM     26  C   LIG    1       -4.613   0.633   2.607  0.00  0.00    -0.054 A 
ATOM     27  C   LIG    1       -3.405   1.156   3.080  0.00  0.00    +0.052 A 
ATOM     28  C   LIG    1       -2.954   0.936   4.375  0.00  0.00    +0.170 A 
ATOM     29  C   LIG    1       -3.729   0.184   5.264  0.00  0.00    +0.162 A 
ATOM     30  C   LIG    1       -4.954  -0.326   4.810  0.00  0.00    +0.053 A 
ATOM     31  C   LIG    1       -5.418  -0.099   3.508  0.00  0.00    -0.044 A 
ATOM     32  C   LIG    1       -6.819  -0.575   3.123  0.00  0.00    +0.017 C 
ATOM     33  C   LIG    1       -7.115  -0.550   1.611  0.00  0.00    -0.074 C 
ATOM     34  N   LIG    1       -6.539   0.722   0.949  0.00  0.00    +0.383 N 
ATOM     35  H   LIG    1       -6.714   0.648  -0.044  0.00  0.00    -0.081 HD
ATOM     36  C   LIG    1       -7.283   1.988   1.431  0.00  0.00    -0.095 C 
ATOM     37  C   LIG    1       -2.095  -1.298  -0.012  0.00  0.00    +0.007 A 
ATOM     38  C   LIG    1       -0.703  -1.294  -0.065  0.00  0.00    +0.050 A 
ATOM     39  C   LIG    1        0.011  -0.085  -0.034  0.00  0.00    +0.162 A 
ATOM     40  C   LIG    1        1.328   2.326   2.120  0.00  0.00    +0.046 A 
ATOM     41  C   LIG    1        1.518   2.690   3.448  0.00  0.00    +0.007 A 
ATOM     42  O   LIG    1       -1.760   1.516   4.742  0.00  0.00    -0.448 OA
ATOM     43  C   LIG    1        0.169   1.312   6.175  0.00  0.00    -0.011 A 
ENDROOT
BRANCH  29  44
ATOM     44  O   LIG    1       -3.244   0.008   6.548  0.00  0.00    -0.491 OA
ATOM     45  C   LIG    1       -3.980  -0.786   7.471  0.00  0.00    +0.277 C 
ENDBRANCH  29  44
BRANCH  39  46
ATOM     46  O   LIG    1        1.391  -0.006  -0.068  0.00  0.00    -0.491 OA
ATOM     47  C   LIG    1        2.161  -1.202  -0.106  0.00  0.00    +0.277 C 
ENDBRANCH  39  46
TORSDOF 2
