REMARK  Name = DB16338
REMARK                            x       y       z     vdW  Elec       q    Type
REMARK                         _______ _______ _______ _____ _____    ______ ____
ROOT
ATOM      1  C   LIG    1        1.852   1.182   1.032  0.00  0.00    +0.000 C 
ATOM      2  N   LIG    1        1.909   2.513   0.843  0.00  0.00    +0.000 N 
ATOM      3  H   LIG    1        1.619   2.885  -0.050  0.00  0.00    +0.000 HD
ATOM      4  O   LIG    1        2.164   0.630   2.087  0.00  0.00    +0.000 OA
ENDROOT
BRANCH   2   5
ATOM      5  C   LIG    1        2.326   3.500   1.844  0.00  0.00    +0.000 C 
ATOM      6  B   LIG    1        1.821   4.951   1.436  0.00  0.00    +0.000 B 
ATOM      7  O   LIG    1        2.388   6.043   2.074  0.00  0.00    +0.000 OA
ATOM      8  C   LIG    1        3.482   5.952   2.914  0.00  0.00    +0.000 A 
ATOM      9  C   LIG    1        3.823   7.060   3.725  0.00  0.00    +0.000 A 
ATOM     10  C   LIG    1        4.897   6.927   4.617  0.00  0.00    +0.000 A 
ATOM     11  C   LIG    1        5.614   5.737   4.700  0.00  0.00    +0.000 A 
ATOM     12  C   LIG    1        5.275   4.661   3.885  0.00  0.00    +0.000 A 
ATOM     13  C   LIG    1        4.217   4.752   2.977  0.00  0.00    +0.000 A 
ATOM     14  C   LIG    1        3.856   3.599   2.046  0.00  0.00    +0.000 C 
BRANCH   6  15
ATOM     15  O   LIG    1        0.705   5.157   0.677  0.00  0.00    +0.000 OA
ATOM     16  H   LIG    1        0.489   6.091   0.622  0.00  0.00    +0.000 HD
ENDBRANCH   6  15
BRANCH   9  17
ATOM     17  C   LIG    1        3.080   8.361   3.676  0.00  0.00    +0.000 C 
ATOM     18  O   LIG    1        3.144   9.022   2.614  0.00  0.00    +0.000 OA
BRANCH  17  19
ATOM     19  O   LIG    1        2.455   8.707   4.705  0.00  0.00    +0.000 OA
ATOM     20  H   LIG    1        1.978   9.513   4.714  0.00  0.00    +0.000 HD
ENDBRANCH  17  19
ENDBRANCH   9  17
ENDBRANCH   2   5
BRANCH   1  21
ATOM     21  C   LIG    1        1.379   0.341  -0.164  0.00  0.00    +0.000 C 
BRANCH  21  25
ATOM     22  C   LIG    1       -2.468  -1.959  -0.275  0.00  0.00    +0.000 C 
ATOM     23  C   LIG    1       -1.966  -1.376   1.071  0.00  0.00    +0.000 C 
ATOM     24  C   LIG    1       -0.461  -1.043   1.039  0.00  0.00    +0.000 C 
ATOM     25  C   LIG    1       -0.119  -0.060  -0.110  0.00  0.00    +0.000 C 
ATOM     26  C   LIG    1       -0.563  -0.698  -1.447  0.00  0.00    +0.000 C 
ATOM     27  C   LIG    1       -2.070  -1.030  -1.454  0.00  0.00    +0.000 C 
BRANCH  22  28
ATOM     28  N   LIG    1       -4.003  -2.064  -0.175  0.00  0.00    +0.000 N 
ATOM     29  H   LIG    1       -4.224  -2.508   0.705  0.00  0.00    +0.000 HD
ATOM     30  H   LIG    1       -4.373  -1.126  -0.119  0.00  0.00    +0.000 HD
BRANCH  28  31
ATOM     31  C   LIG    1       -4.695  -2.817  -1.330  0.00  0.00    +0.000 C 
BRANCH  31  32
ATOM     32  C   LIG    1       -6.200  -3.015  -1.037  0.00  0.00    +0.000 C 
BRANCH  32  33
ATOM     33  N   LIG    1       -7.007  -1.746  -1.348  0.00  0.00    +0.000 N 
ATOM     34  H   LIG    1       -6.708  -0.980  -0.761  0.00  0.00    +0.000 HD
ATOM     35  H   LIG    1       -6.887  -1.482  -2.316  0.00  0.00    +0.000 HD
ATOM     36  H   LIG    1       -7.990  -1.913  -1.181  0.00  0.00    +0.000 HD
ENDBRANCH  32  33
ENDBRANCH  31  32
ENDBRANCH  28  31
ENDBRANCH  22  28
ENDBRANCH  21  25
ENDBRANCH   1  21
TORSDOF 10
