REMARK  Name = DB16690
REMARK                            x       y       z     vdW  Elec       q    Type
REMARK                         _______ _______ _______ _____ _____    ______ ____
ROOT
ATOM      1  C   LIG    1        1.531   0.178   0.440  0.00  0.00    +0.042 A 
ATOM      2  C   LIG    1        2.388   0.006   1.539  0.00  0.00    +0.041 A 
ATOM      3  C   LIG    1        3.760  -0.030   1.284  0.00  0.00    +0.071 A 
ATOM      4  N   LIG    1        4.867  -0.171   2.087  0.00  0.00    -0.342 N 
ATOM      5  H   LIG    1        4.917  -0.285   3.089  0.00  0.00    +0.167 HD
ATOM      6  C   LIG    1        5.972  -0.134   1.270  0.00  0.00    +0.105 A 
ATOM      7  C   LIG    1        7.379  -0.263   1.803  0.00  0.00    +0.086 C 
ATOM      8  N   LIG    1        5.669   0.021   0.005  0.00  0.00    -0.229 NA
ATOM      9  C   LIG    1        4.298   0.087  -0.022  0.00  0.00    +0.131 A 
ATOM     10  C   LIG    1        3.432   0.240  -1.116  0.00  0.00    +0.149 A 
ATOM     11  C   LIG    1        2.053   0.270  -0.861  0.00  0.00    +0.061 A 
ENDROOT
BRANCH   1  14
ATOM     12  C   LIG    1       -0.283   2.257  -0.725  0.00  0.00    +0.132 C 
ATOM     13  N   LIG    1       -0.752   1.050  -0.039  0.00  0.00    -0.304 N 
ATOM     14  C   LIG    1        0.033   0.200   0.678  0.00  0.00    +0.246 C 
ATOM     15  O   LIG    1       -0.437  -0.582   1.510  0.00  0.00    -0.270 OA
ATOM     16  C   LIG    1       -2.202   0.864  -0.132  0.00  0.00    +0.132 C 
ENDBRANCH   1  14
BRANCH  10  17
ATOM     17  O   LIG    1        4.042   0.335  -2.353  0.00  0.00    -0.482 OA
BRANCH  17  18
ATOM     18  C   LIG    1        3.261   0.531  -3.534  0.00  0.00    +0.213 C 
ATOM     19  C   LIG    1        4.144   0.205  -4.737  0.00  0.00    +0.070 A 
ATOM     20  C   LIG    1        4.435  -1.116  -5.104  0.00  0.00    +0.136 A 
ATOM     21  F   LIG    1        3.901  -2.144  -4.406  0.00  0.00    -0.205 F 
ATOM     22  C   LIG    1        5.278  -1.392  -6.181  0.00  0.00    +0.077 A 
ATOM     23  C   LIG    1        5.849  -0.350  -6.908  0.00  0.00    +0.130 A 
ATOM     24  F   LIG    1        6.665  -0.620  -7.952  0.00  0.00    -0.205 F 
ATOM     25  C   LIG    1        5.575   0.970  -6.561  0.00  0.00    +0.084 A 
ATOM     26  C   LIG    1        4.735   1.248  -5.482  0.00  0.00    +0.133 A 
ATOM     27  O   LIG    1        4.479   2.589  -5.256  0.00  0.00    -0.491 OA
ATOM     28  C   LIG    1        3.925   2.920  -3.979  0.00  0.00    +0.233 C 
ATOM     29  C   LIG    1        2.749   1.984  -3.652  0.00  0.00    +0.090 C 
ENDBRANCH  17  18
ENDBRANCH  10  17
TORSDOF 3
