REMARK  Name = DB16987
REMARK                            x       y       z     vdW  Elec       q    Type
REMARK                         _______ _______ _______ _____ _____    ______ ____
ROOT
ATOM      1  C   LIG    1       -0.231   0.179  -0.030  0.00  0.00    +0.073 C 
ATOM      2  C   LIG    1       -1.014  -0.230  -1.325  0.00  0.00    +0.054 C 
ATOM      3  C   LIG    1       -2.534  -0.476  -1.185  0.00  0.00    +0.111 C 
ATOM      4  N   LIG    1       -2.733  -1.303   0.010  0.00  0.00    -0.297 N 
ATOM      5  C   LIG    1       -2.785  -2.663  -0.004  0.00  0.00    +0.249 C 
ATOM      6  O   LIG    1       -2.676  -3.353   1.011  0.00  0.00    -0.270 OA
ATOM      7  C   LIG    1       -2.436  -0.576   1.247  0.00  0.00    +0.111 C 
ATOM      8  C   LIG    1       -0.906  -0.347   1.283  0.00  0.00    +0.054 C 
ENDROOT
BRANCH   5   9
ATOM      9  C   LIG    1       -3.027  -3.347  -1.327  0.00  0.00    +0.063 A 
ATOM     10  C   LIG    1       -2.018  -4.060  -2.017  0.00  0.00    +0.083 A 
ATOM     11  N   LIG    1       -2.253  -4.635  -3.230  0.00  0.00    -0.254 NA
ATOM     12  C   LIG    1       -3.490  -4.532  -3.775  0.00  0.00    +0.111 A 
ATOM     13  C   LIG    1       -4.535  -3.857  -3.153  0.00  0.00    +0.020 A 
ATOM     14  C   LIG    1       -4.296  -3.259  -1.916  0.00  0.00    +0.016 A 
BRANCH  10  15
ATOM     15  C   LIG    1       -0.618  -4.234  -1.535  0.00  0.00    +0.004 A 
ATOM     16  C   LIG    1       -0.337  -4.895  -0.331  0.00  0.00    +0.030 A 
ATOM     17  C   LIG    1        0.989  -5.020   0.087  0.00  0.00    +0.111 A 
ATOM     18  N   LIG    1        2.036  -4.535  -0.627  0.00  0.00    -0.263 NA
ATOM     19  C   LIG    1        1.761  -3.910  -1.799  0.00  0.00    +0.111 A 
ATOM     20  C   LIG    1        0.463  -3.743  -2.283  0.00  0.00    +0.030 A 
ENDBRANCH  10  15
ENDBRANCH   5   9
BRANCH   1  21
ATOM     21  O   LIG    1       -0.551   1.560   0.054  0.00  0.00    -0.388 OA
ATOM     22  H   LIG    1       -1.506   1.648   0.101  0.00  0.00    +0.210 HD
ENDBRANCH   1  21
BRANCH   1  23
ATOM     23  C   LIG    1        1.283  -0.149  -0.084  0.00  0.00    +0.070 C 
BRANCH  23  24
ATOM     24  C   LIG    1        2.041   0.527  -1.222  0.00  0.00    -0.045 A 
ATOM     25  C   LIG    1        2.556   1.815  -1.049  0.00  0.00    +0.004 A 
ATOM     26  C   LIG    1        3.249   2.434  -2.086  0.00  0.00    +0.000 A 
ATOM     27  C   LIG    1        3.428   1.761  -3.293  0.00  0.00    +0.000 A 
ATOM     28  C   LIG    1        2.918   0.477  -3.473  0.00  0.00    +0.000 A 
ATOM     29  C   LIG    1        2.224  -0.141  -2.436  0.00  0.00    +0.004 A 
ENDBRANCH  23  24
ENDBRANCH   1  23
TORSDOF 5
