REMARK  Name = DB16907
REMARK                            x       y       z     vdW  Elec       q    Type
REMARK                         _______ _______ _______ _____ _____    ______ ____
ROOT
ATOM      1  C   LIG    1        0.397  -0.113  -0.095  0.00  0.00    +0.285 C 
ENDROOT
BRANCH   1   2
ATOM      2  O   LIG    1        0.471  -0.806  -1.331  0.00  0.00    -0.366 OA
ATOM      3  H   LIG    1        0.131  -0.233  -2.024  0.00  0.00    +0.212 HD
ENDBRANCH   1   2
BRANCH   1   4
ATOM      4  P   LIG    1       -0.936   1.224  -0.324  0.00  0.00    +0.373 P 
ATOM      5  O   LIG    1       -2.145   1.156   0.581  0.00  0.00    -0.255 OA
BRANCH   4   6
ATOM      6  O   LIG    1       -1.324   1.129  -1.994  0.00  0.00    -0.322 OA
ATOM      7  H   LIG    1       -2.166   1.447  -2.372  0.00  0.00    +0.220 HD
ENDBRANCH   4   6
BRANCH   4   8
ATOM      8  O   LIG    1       -0.029   2.668  -0.137  0.00  0.00    -0.322 OA
ATOM      9  H   LIG    1        0.497   2.882   0.657  0.00  0.00    +0.220 HD
ENDBRANCH   4   8
ENDBRANCH   1   4
BRANCH   1  10
ATOM     10  P   LIG    1        2.177   0.438   0.208  0.00  0.00    +0.373 P 
ATOM     11  O   LIG    1        2.367   1.445   1.320  0.00  0.00    -0.255 OA
BRANCH  10  12
ATOM     12  O   LIG    1        2.646   1.031  -1.334  0.00  0.00    -0.322 OA
ATOM     13  H   LIG    1        2.178   1.744  -1.810  0.00  0.00    +0.220 HD
ENDBRANCH  10  12
BRANCH  10  14
ATOM     14  O   LIG    1        3.020  -1.037   0.450  0.00  0.00    -0.322 OA
ATOM     15  H   LIG    1        2.634  -1.920   0.292  0.00  0.00    +0.220 HD
ENDBRANCH  10  14
ENDBRANCH   1  10
BRANCH   1  16
ATOM     16  C   LIG    1        0.011  -1.126   1.028  0.00  0.00    +0.183 C 
BRANCH  16  17
ATOM     17  N   LIG    1       -1.256  -1.831   0.821  0.00  0.00    -0.333 N 
ATOM     18  C   LIG    1       -2.402  -1.735   1.576  0.00  0.00    +0.199 A 
ATOM     19  N   LIG    1       -3.375  -2.511   1.161  0.00  0.00    -0.244 NA
ATOM     20  C   LIG    1       -2.868  -3.153   0.125  0.00  0.00    +0.130 A 
ATOM     21  C   LIG    1       -1.556  -2.781  -0.123  0.00  0.00    +0.107 A 
ENDBRANCH  16  17
ENDBRANCH   1  16
TORSDOF 9
