REMARK  Name = DB16133
REMARK                            x       y       z     vdW  Elec       q    Type
REMARK                         _______ _______ _______ _____ _____    ______ ____
ROOT
ATOM      1  C   LIG    1       -1.902  -3.114   2.529  0.00  0.00    +0.011 C 
ATOM      2  C   LIG    1       -1.380  -2.906   1.093  0.00  0.00    +0.028 C 
ATOM      3  C   LIG    1        0.098  -2.464   0.947  0.00  0.00    +0.058 C 
ATOM      4  C   LIG    1        0.977  -2.331   2.202  0.00  0.00    +0.132 C 
ATOM      5  N   LIG    1        2.385  -2.386   1.803  0.00  0.00    -0.312 N 
ATOM      6  C   LIG    1        2.416  -2.980   0.467  0.00  0.00    +0.109 C 
ATOM      7  C   LIG    1        0.986  -3.309   0.039  0.00  0.00    +0.047 C 
ATOM      8  N   LIG    1       -0.445  -1.202   0.355  0.00  0.00    -0.293 N 
ATOM      9  C   LIG    1        0.101  -0.088  -0.173  0.00  0.00    +0.230 C 
ATOM     10  O   LIG    1       -0.395   0.465  -1.155  0.00  0.00    -0.274 OA
ATOM     11  C   LIG    1       -1.873  -1.604   0.438  0.00  0.00    +0.113 C 
ENDROOT
BRANCH   5  12
ATOM     12  C   LIG    1        3.487  -2.089   2.623  0.00  0.00    +0.134 A 
ATOM     13  N   LIG    1        3.218  -1.585   3.861  0.00  0.00    -0.220 NA
ATOM     14  C   LIG    1        4.271  -1.280   4.660  0.00  0.00    +0.225 A 
ATOM     15  N   LIG    1        5.593  -1.411   4.380  0.00  0.00    -0.218 NA
ATOM     16  C   LIG    1        5.823  -1.899   3.157  0.00  0.00    +0.143 A 
ATOM     17  N   LIG    1        7.056  -2.139   2.590  0.00  0.00    -0.346 N 
ATOM     18  H   LIG    1        7.965  -1.988   3.002  0.00  0.00    +0.167 HD
ATOM     19  C   LIG    1        6.885  -2.636   1.321  0.00  0.00    +0.085 A 
ATOM     20  C   LIG    1        5.535  -2.728   1.038  0.00  0.00    +0.032 A 
ATOM     21  C   LIG    1        4.828  -2.266   2.203  0.00  0.00    +0.059 A 
ENDBRANCH   5  12
BRANCH   9  22
ATOM     22  C   LIG    1        1.424   0.430   0.400  0.00  0.00    +0.214 C 
BRANCH  22  23
ATOM     23  C   LIG    1        1.782   1.817   0.059  0.00  0.00    +0.072 C 
ATOM     24  N   LIG    1        2.064   2.907  -0.208  0.00  0.00    -0.196 NA
ENDBRANCH  22  23
ENDBRANCH   9  22
TORSDOF 3
