REMARK  Name = DB16847
REMARK                            x       y       z     vdW  Elec       q    Type
REMARK                         _______ _______ _______ _____ _____    ______ ____
ROOT
ATOM      1  C   LIG    1        0.034   0.025   0.002  0.00  0.00    +0.024 A 
ATOM      2  C   LIG    1        1.556   0.068   0.001  0.00  0.00    +0.064 C 
ATOM      3  N   LIG    1       -0.535   1.277   0.008  0.00  0.00    -0.325 N 
ATOM      4  H   LIG    1        0.051   2.099   0.013  0.00  0.00    +0.169 HD
ATOM      5  C   LIG    1       -1.878   1.517   0.010  0.00  0.00    +0.266 A 
ATOM      6  O   LIG    1       -2.318   2.664   0.018  0.00  0.00    -0.267 OA
ATOM      7  C   LIG    1       -2.713   0.314   0.003  0.00  0.00    +0.116 A 
ATOM      8  C   LIG    1       -2.165  -0.926  -0.006  0.00  0.00    +0.034 A 
ATOM      9  C   LIG    1       -0.718  -1.107  -0.004  0.00  0.00    +0.004 A 
ENDROOT
BRANCH   9  10
ATOM     10  C   LIG    1       -0.148  -2.463  -0.009  0.00  0.00    +0.000 A 
ATOM     11  C   LIG    1        0.140  -3.106   1.195  0.00  0.00    +0.101 A 
ATOM     12  N   LIG    1        0.671  -4.369   1.174  0.00  0.00    -0.306 N 
ATOM     13  C   LIG    1        1.045  -5.224   2.178  0.00  0.00    +0.112 A 
ATOM     14  C   LIG    1        1.515  -6.364   1.531  0.00  0.00    +0.131 A 
ATOM     15  N   LIG    1        1.463  -6.282   0.218  0.00  0.00    -0.236 NA
ATOM     16  C   LIG    1        0.942  -5.052  -0.026  0.00  0.00    +0.138 A 
ATOM     17  C   LIG    1        0.651  -4.407  -1.242  0.00  0.00    +0.047 A 
ATOM     18  C   LIG    1        0.108  -3.120  -1.214  0.00  0.00    +0.013 A 
ENDBRANCH   9  10
BRANCH   7  19
ATOM     19  C   LIG    1       -4.135   0.435   0.004  0.00  0.00    +0.105 C 
ATOM     20  N   LIG    1       -5.290   0.509   0.009  0.00  0.00    -0.191 NA
ENDBRANCH   7  19
TORSDOF 2
