REMARK  Name = DB16119
REMARK                            x       y       z     vdW  Elec       q    Type
REMARK                         _______ _______ _______ _____ _____    ______ ____
ROOT
ATOM      1  C   LIG    1        1.519   0.273  -0.470  0.00  0.00    -0.045 A 
ATOM      2  C   LIG    1        2.011  -0.496   0.588  0.00  0.00    +0.006 A 
ATOM      3  C   LIG    1        3.382  -0.669   0.746  0.00  0.00    +0.026 A 
ATOM      4  C   LIG    1        4.270  -0.066  -0.154  0.00  0.00    +0.054 A 
ATOM      5  C   LIG    1        3.776   0.702  -1.217  0.00  0.00    +0.026 A 
ATOM      6  C   LIG    1        2.403   0.866  -1.375  0.00  0.00    +0.006 A 
ENDROOT
BRANCH   4   7
ATOM      7  N   LIG    1        5.672  -0.235   0.010  0.00  0.00    -0.228 N 
ATOM      8  C   LIG    1        6.261   0.554   0.982  0.00  0.00    +0.269 A 
ATOM      9  O   LIG    1        5.642   1.363   1.684  0.00  0.00    -0.266 OA
ATOM     10  C   LIG    1        7.754   0.340   1.108  0.00  0.00    +0.065 A 
ATOM     11  C   LIG    1        8.473   1.071   2.065  0.00  0.00    +0.038 A 
ATOM     12  C   LIG    1        9.861   0.914   2.217  0.00  0.00    +0.030 A 
ATOM     13  C   LIG    1       10.501  -0.011   1.374  0.00  0.00    +0.025 A 
ATOM     14  C   LIG    1        9.792  -0.740   0.422  0.00  0.00    +0.028 A 
ATOM     15  C   LIG    1        8.407  -0.574   0.274  0.00  0.00    +0.058 A 
ATOM     16  N   LIG    1        7.632  -1.281  -0.680  0.00  0.00    -0.296 N 
ATOM     17  C   LIG    1        8.348  -2.225  -1.563  0.00  0.00    +0.154 C 
ATOM     18  C   LIG    1        6.272  -1.163  -0.831  0.00  0.00    +0.337 A 
ATOM     19  O   LIG    1        5.635  -1.839  -1.651  0.00  0.00    -0.246 OA
BRANCH  12  20
ATOM     20  N   LIG    1       10.590   1.653   3.192  0.00  0.00    -0.336 N 
ATOM     21  C   LIG    1        9.943   2.740   3.927  0.00  0.00    +0.129 C 
ATOM     22  C   LIG    1       12.053   1.652   3.172  0.00  0.00    +0.129 C 
ENDBRANCH  12  20
ENDBRANCH   4   7
BRANCH   1  23
ATOM     23  C   LIG    1        0.015   0.496  -0.619  0.00  0.00    +0.069 C 
BRANCH  23  24
ATOM     24  C   LIG    1       -0.399   1.942  -0.235  0.00  0.00    +0.186 C 
BRANCH  24  25
ATOM     25  N   LIG    1        0.132   2.342   1.086  0.00  0.00    -0.298 N 
ATOM     26  H   LIG    1        0.840   1.718   1.446  0.00  0.00    +0.150 HD
ATOM     27  C   LIG    1       -0.020   3.512   1.737  0.00  0.00    +0.248 C 
ATOM     28  O   LIG    1       -0.675   4.467   1.320  0.00  0.00    -0.270 OA
BRANCH  27  29
ATOM     29  C   LIG    1        0.733   3.599   3.038  0.00  0.00    +0.073 A 
ATOM     30  C   LIG    1        2.144   3.640   3.052  0.00  0.00    +0.054 A 
ATOM     31 CL   LIG    1        3.094   3.605   1.600  0.00  0.00    -0.083 Cl
ATOM     32  C   LIG    1        2.828   3.716   4.266  0.00  0.00    +0.021 A 
ATOM     33  C   LIG    1        2.130   3.755   5.469  0.00  0.00    +0.003 A 
ATOM     34  C   LIG    1        0.738   3.717   5.465  0.00  0.00    +0.021 A 
ATOM     35  C   LIG    1        0.035   3.638   4.263  0.00  0.00    +0.054 A 
ATOM     36 CL   LIG    1       -1.698   3.578   4.348  0.00  0.00    -0.083 Cl
ENDBRANCH  27  29
ENDBRANCH  24  25
BRANCH  24  37
ATOM     37  C   LIG    1       -1.917   2.091  -0.320  0.00  0.00    +0.328 C 
ATOM     38  O   LIG    1       -2.476   2.475  -1.349  0.00  0.00    -0.249 OA
BRANCH  37  40
ATOM     39  C   LIG    1       -3.971   1.753   0.901  0.00  0.00    +0.280 C 
ATOM     40  O   LIG    1       -2.556   1.691   0.809  0.00  0.00    -0.467 OA
ENDBRANCH  37  40
ENDBRANCH  24  37
ENDBRANCH  23  24
ENDBRANCH   1  23
TORSDOF 8
