REMARK  Name = DB16821
REMARK                            x       y       z     vdW  Elec       q    Type
REMARK                         _______ _______ _______ _____ _____    ______ ____
ROOT
ATOM      1  C   LIG    1       -4.551   1.127   0.159  0.00  0.00    -0.029 A 
ATOM      2  C   LIG    1       -4.839   2.496   0.248  0.00  0.00    +0.007 A 
ATOM      3  C   LIG    1       -3.806   3.436   0.283  0.00  0.00    +0.024 A 
ATOM      4  C   LIG    1       -2.489   2.984   0.214  0.00  0.00    +0.042 A 
ATOM      5  N   LIG    1       -1.310   3.690   0.231  0.00  0.00    -0.281 N 
ATOM      6  H   LIG    1       -1.255   4.696   0.295  0.00  0.00    +0.155 HD
ATOM      7  C   LIG    1       -0.226   2.898   0.135  0.00  0.00    +0.249 C 
ATOM      8  O   LIG    1        0.935   3.301   0.111  0.00  0.00    -0.270 OA
ATOM      9  C   LIG    1       -0.737   1.533   0.058  0.00  0.00    +0.048 C 
ATOM     10  C   LIG    1        0.024   0.419  -0.055  0.00  0.00    +0.039 C 
ATOM     11  C   LIG    1       -2.191   1.646   0.106  0.00  0.00    +0.009 A 
ATOM     12  C   LIG    1       -3.219   0.701   0.068  0.00  0.00    +0.015 A 
ENDROOT
BRANCH  10  13
ATOM     13  C   LIG    1        1.468   0.247  -0.075  0.00  0.00    +0.040 A 
ATOM     14  N   LIG    1        2.047  -0.647  -0.937  0.00  0.00    -0.361 N 
ATOM     15  H   LIG    1        1.546  -1.216  -1.605  0.00  0.00    +0.165 HD
ATOM     16  C   LIG    1        3.406  -0.640  -0.771  0.00  0.00    +0.088 A 
ATOM     17  C   LIG    1        3.742   0.260   0.232  0.00  0.00    -0.016 A 
ATOM     18  C   LIG    1        2.515   0.791   0.663  0.00  0.00    +0.032 A 
BRANCH  17  19
ATOM     19  C   LIG    1        5.127   0.595   0.750  0.00  0.00    +0.121 C 
BRANCH  19  20
ATOM     20  N   LIG    1        5.760   1.687   0.003  0.00  0.00    -0.294 NA
ATOM     21  C   LIG    1        5.120   2.987   0.265  0.00  0.00    +0.113 C 
ATOM     22  C   LIG    1        5.861   4.140  -0.445  0.00  0.00    +0.175 C 
ATOM     23  O   LIG    1        7.236   4.138  -0.078  0.00  0.00    -0.377 OA
ATOM     24  C   LIG    1        7.885   2.919  -0.424  0.00  0.00    +0.175 C 
ATOM     25  C   LIG    1        7.200   1.735   0.290  0.00  0.00    +0.113 C 
ENDBRANCH  19  20
ENDBRANCH  17  19
ENDBRANCH  10  13
BRANCH   1  26
ATOM     26  C   LIG    1       -5.683   0.111   0.096  0.00  0.00    +0.152 C 
BRANCH  26  29
ATOM     27  O   LIG    1       -4.592  -2.036   1.611  0.00  0.00    -0.274 OA
ATOM     28  C   LIG    1       -5.535  -1.373   2.044  0.00  0.00    +0.233 C 
ATOM     29  N   LIG    1       -6.149  -0.341   1.423  0.00  0.00    -0.228 N 
ATOM     30  C   LIG    1       -7.169   0.301   2.034  0.00  0.00    +0.281 C 
ATOM     31  O   LIG    1       -7.819   1.257   1.611  0.00  0.00    -0.262 OA
ATOM     32  S   LIG    1       -7.488  -0.452   3.640  0.00  0.00    -0.058 S 
ATOM     33  C   LIG    1       -6.166  -1.639   3.401  0.00  0.00    +0.175 C 
ENDBRANCH  26  29
ENDBRANCH   1  26
TORSDOF 5
