REMARK  Name = DB16172
REMARK                            x       y       z     vdW  Elec       q    Type
REMARK                         _______ _______ _______ _____ _____    ______ ____
ROOT
ATOM      1  C   LIG    1        1.479  -0.002  -0.175  0.00  0.00    +0.163 A 
ATOM      2  C   LIG    1        2.207   1.193  -0.065  0.00  0.00    +0.051 A 
ATOM      3  C   LIG    1        3.594   1.176  -0.006  0.00  0.00    +0.030 A 
ATOM      4  C   LIG    1        4.274  -0.036  -0.046  0.00  0.00    +0.054 A 
ATOM      5  N   LIG    1        5.676  -0.039   0.025  0.00  0.00    -0.354 N 
ATOM      6  H   LIG    1        6.147   0.851   0.095  0.00  0.00    +0.166 HD
ATOM      7  C   LIG    1        6.439  -1.195  -0.002  0.00  0.00    +0.051 A 
ATOM      8  C   LIG    1        5.814  -2.397  -0.107  0.00  0.00    +0.077 A 
ATOM      9  C   LIG    1        4.354  -2.571  -0.195  0.00  0.00    +0.194 A 
ATOM     10  O   LIG    1        3.823  -3.677  -0.288  0.00  0.00    -0.287 OA
ATOM     11  C   LIG    1        3.583  -1.263  -0.157  0.00  0.00    +0.091 A 
ATOM     12  C   LIG    1        2.173  -1.226  -0.241  0.00  0.00    +0.186 A 
ENDROOT
BRANCH   7  13
ATOM     13  C   LIG    1        7.931  -1.048   0.073  0.00  0.00    +0.001 A 
ATOM     14  C   LIG    1        8.799  -2.126  -0.186  0.00  0.00    +0.010 A 
ATOM     15  C   LIG    1       10.184  -1.981  -0.109  0.00  0.00    +0.003 A 
ATOM     16  C   LIG    1       10.740  -0.752   0.232  0.00  0.00    +0.038 A 
ATOM     17  C   LIG    1        9.908   0.333   0.494  0.00  0.00    +0.124 A 
ATOM     18  F   LIG    1       10.442   1.530   0.824  0.00  0.00    -0.205 F 
ATOM     19  C   LIG    1        8.523   0.184   0.416  0.00  0.00    +0.048 A 
ENDBRANCH   7  13
BRANCH   1  21
ATOM     20  C   LIG    1       -0.646   1.169  -0.274  0.00  0.00    +0.277 C 
ATOM     21  O   LIG    1        0.097  -0.041  -0.186  0.00  0.00    -0.491 OA
ENDBRANCH   1  21
BRANCH  12  22
ATOM     22  O   LIG    1        1.476  -2.405  -0.366  0.00  0.00    -0.399 OA
BRANCH  22  23
ATOM     23  P   LIG    1        0.154  -2.829  -1.455  0.00  0.00    +0.528 P 
ATOM     24  O   LIG    1        0.491  -4.237  -1.976  0.00  0.00    -0.216 OA
BRANCH  23  25
ATOM     25  O   LIG    1        0.149  -1.769  -2.574  0.00  0.00    -0.293 OA
ATOM     26  H   LIG    1       -0.067  -0.902  -2.197  0.00  0.00    +0.223 HD
ENDBRANCH  23  25
BRANCH  23  27
ATOM     27  O   LIG    1       -1.123  -2.801  -0.595  0.00  0.00    -0.293 OA
ATOM     28  H   LIG    1       -1.290  -1.895  -0.292  0.00  0.00    +0.223 HD
ENDBRANCH  23  27
ENDBRANCH  22  23
ENDBRANCH  12  22
TORSDOF 6
