REMARK  Name = DB16842
REMARK                            x       y       z     vdW  Elec       q    Type
REMARK                         _______ _______ _______ _____ _____    ______ ____
ROOT
ATOM      1  C   LIG    1       -0.809   1.007  -0.113  0.00  0.00    +0.245 C 
ATOM      2  O   LIG    1       -0.449   2.180  -0.233  0.00  0.00    -0.270 OA
ATOM      3  N   LIG    1        0.060  -0.019  -0.005  0.00  0.00    -0.301 N 
ATOM      4  H   LIG    1       -0.310  -0.944   0.157  0.00  0.00    +0.150 HD
ENDROOT
BRANCH   1   5
ATOM      5  C   LIG    1       -2.279   0.651  -0.046  0.00  0.00    +0.037 A 
ATOM      6  C   LIG    1       -2.733  -0.642  -0.353  0.00  0.00    +0.013 A 
ATOM      7  C   LIG    1       -4.090  -0.948  -0.289  0.00  0.00    +0.001 A 
ATOM      8  C   LIG    1       -5.003   0.036   0.080  0.00  0.00    +0.000 A 
ATOM      9  C   LIG    1       -4.571   1.324   0.383  0.00  0.00    +0.001 A 
ATOM     10  C   LIG    1       -3.214   1.631   0.318  0.00  0.00    +0.013 A 
ENDBRANCH   1   5
BRANCH   3  11
ATOM     11  C   LIG    1        1.529   0.090  -0.037  0.00  0.00    +0.225 C 
BRANCH  11  12
ATOM     12  C   LIG    1        2.154   0.148  -1.457  0.00  0.00    +0.322 C 
ATOM     13  O   LIG    1        3.382   0.388  -1.501  0.00  0.00    -0.249 OA
BRANCH  12  14
ATOM     14  O   LIG    1        1.448  -0.059  -2.472  0.00  0.00    -0.480 OA
ATOM     15  H   LIG    1        0.532  -0.234  -2.378  0.00  0.00    +0.295 HD
ENDBRANCH  12  14
ENDBRANCH  11  12
ENDBRANCH   3  11
TORSDOF 4
