REMARK  Name = DB16889
REMARK                            x       y       z     vdW  Elec       q    Type
REMARK                         _______ _______ _______ _____ _____    ______ ____
ROOT
ATOM      1  C   LIG    1        1.396   2.748  -0.793  0.00  0.00    +0.382 C 
ATOM      2  N   LIG    1        0.618   2.689   0.226  0.00  0.00    -0.067 NA
ENDROOT
BRANCH   1   3
ATOM      3  N   LIG    1        2.148   3.918  -1.027  0.00  0.00    -0.289 N 
ATOM      4  H   LIG    1        2.792   4.005  -1.799  0.00  0.00    +0.255 HD
ATOM      5  H   LIG    1        2.106   4.714  -0.407  0.00  0.00    +0.255 HD
ENDBRANCH   1   3
BRANCH   1   6
ATOM      6  N   LIG    1        1.677   1.789  -1.813  0.00  0.00    -0.272 N 
ATOM      7  H   LIG    1        2.435   1.986  -2.450  0.00  0.00    +0.258 HD
BRANCH   6   8
ATOM      8  C   LIG    1        1.203   0.409  -1.841  0.00  0.00    +0.231 C 
BRANCH   8  13
ATOM      9  C   LIG    1       -2.526  -0.328  -3.925  0.00  0.00    +0.059 A 
ATOM     10 CL   LIG    1       -4.015  -0.603  -4.761  0.00  0.00    -0.082 Cl
ATOM     11  C   LIG    1       -1.803   0.835  -4.197  0.00  0.00    +0.022 A 
ATOM     12  C   LIG    1       -0.601   1.087  -3.538  0.00  0.00    +0.008 A 
ATOM     13  C   LIG    1       -0.105   0.176  -2.595  0.00  0.00    -0.013 A 
ATOM     14  C   LIG    1       -0.830  -0.990  -2.331  0.00  0.00    +0.028 A 
ATOM     15  C   LIG    1       -2.036  -1.246  -2.987  0.00  0.00    +0.060 A 
ATOM     16 CL   LIG    1       -2.896  -2.700  -2.615  0.00  0.00    -0.082 Cl
ENDBRANCH   8  13
ENDBRANCH   6   8
ENDBRANCH   1   6
BRANCH   2  17
ATOM     17  C   LIG    1       -0.150   1.634   0.502  0.00  0.00    +0.298 C 
BRANCH  17  18
ATOM     18  N   LIG    1       -1.405   1.630   0.053  0.00  0.00    -0.275 NA
ATOM     19  H   LIG    1       -2.034   0.882   0.306  0.00  0.00    +0.123 HD
ATOM     20  H   LIG    1       -1.719   2.382  -0.542  0.00  0.00    +0.123 HD
ENDBRANCH  17  18
BRANCH  17  21
ATOM     21  N   LIG    1        0.236   0.698   1.382  0.00  0.00    -0.261 NA
ATOM     22  H   LIG    1       -0.459   0.018   1.654  0.00  0.00    +0.127 HD
BRANCH  21  23
ATOM     23  C   LIG    1        1.564   0.572   2.003  0.00  0.00    +0.086 C 
BRANCH  23  24
ATOM     24  C   LIG    1        1.901  -0.856   2.477  0.00  0.00    +0.015 C 
BRANCH  24  25
ATOM     25  C   LIG    1        2.052  -1.890   1.339  0.00  0.00    +0.001 C 
BRANCH  25  26
ATOM     26  C   LIG    1        2.580  -3.265   1.793  0.00  0.00    +0.000 C 
BRANCH  26  27
ATOM     27  C   LIG    1        1.640  -4.023   2.752  0.00  0.00    -0.000 C 
BRANCH  27  28
ATOM     28  C   LIG    1        2.152  -5.432   3.100  0.00  0.00    -0.000 C 
BRANCH  28  29
ATOM     29  C   LIG    1        1.233  -6.178   4.085  0.00  0.00    -0.003 C 
ATOM     30  C   LIG    1        1.738  -7.587   4.425  0.00  0.00    +0.004 C 
ENDBRANCH  28  29
ENDBRANCH  27  28
ENDBRANCH  26  27
ENDBRANCH  25  26
ENDBRANCH  24  25
ENDBRANCH  23  24
ENDBRANCH  21  23
ENDBRANCH  17  21
ENDBRANCH   2  17
TORSDOF 14
