REMARK  Name = DB16024
REMARK                            x       y       z     vdW  Elec       q    Type
REMARK                         _______ _______ _______ _____ _____    ______ ____
ROOT
ATOM      1  C   LIG    1        1.512   0.206  -0.318  0.00  0.00    +0.000 C 
ATOM      2  C   LIG    1        2.253  -0.891  -0.090  0.00  0.00    +0.000 C 
ENDROOT
BRANCH   1   4
ATOM      3  C   LIG    1       -0.617   1.385  -0.432  0.00  0.00    +0.002 C 
ATOM      4  C   LIG    1        0.065   0.246  -0.226  0.00  0.00    +0.000 C 
BRANCH   3  19
ATOM      5  C   LIG    1       -5.035   1.871  -1.389  0.00  0.00    +0.022 C 
ATOM      6  C   LIG    1       -4.367   2.635  -0.221  0.00  0.00    +0.031 C 
ATOM      7  C   LIG    1       -4.724   4.116  -0.274  0.00  0.00    -0.007 A 
ATOM      8  C   LIG    1       -5.970   4.807  -0.127  0.00  0.00    -0.012 A 
ATOM      9  C   LIG    1       -7.205   4.141   0.108  0.00  0.00    +0.009 A 
ATOM     10  C   LIG    1       -8.389   4.860   0.250  0.00  0.00    +0.001 A 
ATOM     11  C   LIG    1       -8.389   6.246   0.163  0.00  0.00    +0.001 A 
ATOM     12  C   LIG    1       -7.206   6.937  -0.074  0.00  0.00    +0.008 A 
ATOM     13  C   LIG    1       -5.984   6.235  -0.226  0.00  0.00    -0.017 A 
ATOM     14  C   LIG    1       -4.775   6.924  -0.477  0.00  0.00    +0.010 A 
ATOM     15  C   LIG    1       -3.586   6.223  -0.634  0.00  0.00    +0.024 A 
ATOM     16  C   LIG    1       -3.567   4.831  -0.539  0.00  0.00    +0.038 A 
ATOM     17  N   LIG    1       -2.490   3.945  -0.650  0.00  0.00    -0.302 N 
ATOM     18  C   LIG    1       -2.839   2.614  -0.412  0.00  0.00    +0.021 C 
ATOM     19  C   LIG    1       -2.062   1.502  -0.323  0.00  0.00    +0.020 C 
ATOM     20  C   LIG    1       -4.724   2.017   1.156  0.00  0.00    +0.022 C 
BRANCH  17  21
ATOM     21  C   LIG    1       -1.185   4.478  -1.053  0.00  0.00    +0.111 C 
BRANCH  21  22
ATOM     22  C   LIG    1       -0.211   4.715   0.121  0.00  0.00    +0.021 C 
BRANCH  22  23
ATOM     23  C   LIG    1        1.266   4.745  -0.316  0.00  0.00    +0.027 C 
BRANCH  23  24
ATOM     24  C   LIG    1        2.244   4.727   0.873  0.00  0.00    +0.198 C 
BRANCH  24  25
ATOM     25  S   LIG    1        4.012   4.377   0.285  0.00  0.00    +0.080 S 
ATOM     26  O   LIG    1        3.933   3.030  -0.291  0.00  0.00    -0.147 OA
ATOM     27  O   LIG    1        4.804   4.463   1.517  0.00  0.00    -0.147 OA
BRANCH  25  28
ATOM     28  O   LIG    1        4.278   5.443  -0.687  0.00  0.00    -0.254 OA
ATOM     29  H   LIG    1        4.314   6.297  -0.228  0.00  0.00    +0.244 HD
ENDBRANCH  25  28
ENDBRANCH  24  25
ENDBRANCH  23  24
ENDBRANCH  22  23
ENDBRANCH  21  22
ENDBRANCH  17  21
ENDBRANCH   3  19
ENDBRANCH   1   4
BRANCH   2  30
ATOM     30  C   LIG    1        3.701  -0.870  -0.171  0.00  0.00    +0.002 C 
ATOM     31  C   LIG    1        4.463  -1.958   0.050  0.00  0.00    +0.022 C 
BRANCH  31  32
ATOM     32  C   LIG    1        5.855  -2.024   0.013  0.00  0.00    +0.029 C 
ATOM     33  C   LIG    1        6.853  -0.878  -0.185  0.00  0.00    +0.033 C 
ATOM     34  C   LIG    1        6.680   0.186   0.935  0.00  0.00    +0.022 C 
ATOM     35  C   LIG    1        6.704  -0.268  -1.605  0.00  0.00    +0.022 C 
ATOM     36  C   LIG    1        8.182  -1.603  -0.052  0.00  0.00    -0.005 A 
ATOM     37  C   LIG    1        9.538  -1.147  -0.110  0.00  0.00    -0.012 A 
ATOM     38  C   LIG    1        9.891   0.213  -0.331  0.00  0.00    +0.009 A 
ATOM     39  C   LIG    1       11.225   0.607  -0.379  0.00  0.00    +0.001 A 
ATOM     40  C   LIG    1       12.243  -0.323  -0.211  0.00  0.00    +0.001 A 
ATOM     41  C   LIG    1       11.944  -1.664   0.005  0.00  0.00    +0.008 A 
ATOM     42  C   LIG    1       10.595  -2.099   0.059  0.00  0.00    -0.017 A 
ATOM     43  C   LIG    1       10.277  -3.460   0.278  0.00  0.00    +0.010 A 
ATOM     44  C   LIG    1        8.952  -3.876   0.327  0.00  0.00    +0.027 A 
ATOM     45  C   LIG    1        7.927  -2.946   0.158  0.00  0.00    +0.047 A 
ATOM     46  N   LIG    1        6.528  -3.176   0.178  0.00  0.00    -0.343 N 
BRANCH  46  47
ATOM     47  C   LIG    1        5.937  -4.540   0.388  0.00  0.00    +0.122 C 
BRANCH  47  48
ATOM     48  C   LIG    1        5.615  -4.774   1.875  0.00  0.00    +0.023 C 
BRANCH  48  49
ATOM     49  C   LIG    1        4.976  -6.149   2.121  0.00  0.00    +0.027 C 
BRANCH  49  50
ATOM     50  C   LIG    1        4.619  -6.383   3.599  0.00  0.00    +0.198 C 
BRANCH  50  51
ATOM     51  S   LIG    1        3.809  -8.078   3.832  0.00  0.00    +0.080 S 
ATOM     52  O   LIG    1        4.830  -9.023   3.369  0.00  0.00    -0.147 OA
ATOM     53  O   LIG    1        2.608  -8.012   2.990  0.00  0.00    -0.147 OA
BRANCH  51  54
ATOM     54  O   LIG    1        3.539  -8.131   5.273  0.00  0.00    -0.254 OA
ATOM     55  H   LIG    1        2.856  -7.480   5.498  0.00  0.00    +0.244 HD
ENDBRANCH  51  54
ENDBRANCH  50  51
ENDBRANCH  49  50
ENDBRANCH  48  49
ENDBRANCH  47  48
ENDBRANCH  46  47
ENDBRANCH  31  32
ENDBRANCH   2  30
TORSDOF 16
