REMARK  Name = DB16044
REMARK                            x       y       z     vdW  Elec       q    Type
REMARK                         _______ _______ _______ _____ _____    ______ ____
ROOT
ATOM      1  C   LIG    1       -0.334   2.321   0.582  0.00  0.00    +0.088 C 
ATOM      2  C   LIG    1       -0.771   0.888   0.358  0.00  0.00    +0.129 A 
ATOM      3  N   LIG    1        0.075  -0.210   0.344  0.00  0.00    -0.196 N 
ATOM      4  C   LIG    1       -0.741  -1.309   0.119  0.00  0.00    +0.094 A 
ATOM      5  C   LIG    1       -0.487  -2.679  -0.026  0.00  0.00    +0.030 A 
ATOM      6  C   LIG    1       -1.583  -3.504  -0.267  0.00  0.00    +0.004 A 
ATOM      7  C   LIG    1       -2.879  -3.004  -0.355  0.00  0.00    +0.025 A 
ATOM      8  C   LIG    1       -3.163  -1.639  -0.200  0.00  0.00    +0.057 A 
ATOM      9  C   LIG    1       -2.059  -0.781   0.034  0.00  0.00    +0.112 A 
ATOM     10  N   LIG    1       -2.028   0.580   0.174  0.00  0.00    -0.229 NA
ENDROOT
BRANCH   8  11
ATOM     11  N   LIG    1       -4.466  -1.142  -0.273  0.00  0.00    -0.332 N 
ATOM     12  C   LIG    1       -5.010  -0.337   0.838  0.00  0.00    +0.086 C 
ATOM     13  C   LIG    1       -6.192   0.575   0.443  0.00  0.00    -0.063 C 
ATOM     14  N   LIG    1       -7.317  -0.281  -0.151  0.00  0.00    +0.381 N 
ATOM     15  H   LIG    1       -7.661  -0.927   0.546  0.00  0.00    -0.086 HD
ATOM     16  H   LIG    1       -8.088   0.306  -0.437  0.00  0.00    -0.086 HD
ATOM     17  C   LIG    1       -6.768  -1.058  -1.354  0.00  0.00    -0.063 C 
ATOM     18  C   LIG    1       -5.550  -1.906  -0.921  0.00  0.00    +0.086 C 
ENDBRANCH   8  11
BRANCH   3  19
ATOM     19  S   LIG    1        1.794  -0.152   0.118  0.00  0.00    +0.086 S 
ATOM     20  O   LIG    1        2.307  -1.479   0.477  0.00  0.00    -0.148 OA
ATOM     21  O   LIG    1        2.280   1.050   0.804  0.00  0.00    -0.148 OA
BRANCH  19  22
ATOM     22  C   LIG    1        2.000   0.068  -1.647  0.00  0.00    +0.111 A 
ATOM     23  C   LIG    1        1.955  -1.047  -2.487  0.00  0.00    +0.029 A 
ATOM     24  C   LIG    1        2.099  -0.883  -3.862  0.00  0.00    +0.002 A 
ATOM     25  C   LIG    1        2.286   0.393  -4.389  0.00  0.00    +0.000 A 
ATOM     26  C   LIG    1        2.331   1.508  -3.554  0.00  0.00    +0.002 A 
ATOM     27  C   LIG    1        2.187   1.346  -2.179  0.00  0.00    +0.029 A 
ENDBRANCH  19  22
ENDBRANCH   3  19
TORSDOF 3
