REMARK  Name = DB16303
REMARK                            x       y       z     vdW  Elec       q    Type
REMARK                         _______ _______ _______ _____ _____    ______ ____
ROOT
ATOM      1  C   UNK A  1        1.606  -1.003   0.398  0.00  0.00    +0.100 C 
ENDROOT
BRANCH   1   4
ATOM      2  N   UNK A  1       -0.368  -2.310  -0.227  0.00  0.00    -0.315 N 
ATOM      3  H   UNK A  1        0.303  -3.035  -0.438  0.00  0.00    +0.149 HD
ATOM      4  C   UNK A  1        0.084  -1.129   0.225  0.00  0.00    +0.213 C 
ATOM      5  O   UNK A  1       -0.652  -0.176   0.484  0.00  0.00    -0.276 OA
BRANCH   2   6
ATOM      6  C   UNK A  1       -1.772  -2.653  -0.436  0.00  0.00    +0.104 C 
BRANCH   6   7
ATOM      7  C   UNK A  1       -2.556  -2.888   0.873  0.00  0.00    +0.019 C 
BRANCH   7   8
ATOM      8  C   UNK A  1       -3.959  -3.493   0.667  0.00  0.00    +0.002 C 
BRANCH   8   9
ATOM      9  C   UNK A  1       -4.954  -2.562  -0.053  0.00  0.00    +0.009 C 
BRANCH   9  10
ATOM     10  C   UNK A  1       -6.340  -3.214  -0.237  0.00  0.00    +0.096 C 
BRANCH  10  13
ATOM     11  N   UNK A  1       -7.859  -2.696  -2.089  0.00  0.00    -0.315 N 
ATOM     12  H   UNK A  1       -7.521  -3.566  -2.473  0.00  0.00    +0.149 HD
ATOM     13  C   UNK A  1       -7.351  -2.280  -0.915  0.00  0.00    +0.213 C 
ATOM     14  O   UNK A  1       -7.668  -1.221  -0.371  0.00  0.00    -0.276 OA
BRANCH  11  15
ATOM     15  C   UNK A  1       -8.854  -1.985  -2.896  0.00  0.00    +0.104 C 
BRANCH  15  16
ATOM     16  C   UNK A  1      -10.282  -2.541  -2.730  0.00  0.00    +0.019 C 
BRANCH  16  17
ATOM     17  C   UNK A  1      -10.876  -2.381  -1.317  0.00  0.00    +0.004 C 
BRANCH  17  18
ATOM     18  C   UNK A  1      -12.299  -2.964  -1.200  0.00  0.00    +0.034 C 
BRANCH  18  19
ATOM     19  C   UNK A  1      -12.911  -2.903   0.226  0.00  0.00    +0.183 C 
BRANCH  19  23
ATOM     20  N   UNK A  1      -15.607  -5.323   0.406  0.00  0.00    -0.286 N 
ATOM     21  H   UNK A  1      -16.319  -4.608   0.385  0.00  0.00    +0.151 HD
ATOM     22  C   UNK A  0      -14.316  -4.956   0.384  0.00  0.00    +0.301 C 
ATOM     23  N   UNK A  1      -14.184  -3.622   0.316  0.00  0.00    -0.286 N 
ATOM     24  H   UNK A  1      -15.012  -3.044   0.317  0.00  0.00    +0.151 HD
ATOM     25  O   UNK A  0      -13.370  -5.746   0.418  0.00  0.00    -0.253 OA
BRANCH  20  26
ATOM     26  C   UNK A  1      -16.105  -6.707   0.426  0.00  0.00    +0.183 C 
BRANCH  26  27
ATOM     27  C   UNK A  1      -15.889  -7.440  -0.919  0.00  0.00    +0.325 C 
ATOM     28  O   UNK A  1      -15.583  -6.897  -1.962  0.00  0.00    -0.249 OA
BRANCH  27  29
ATOM     29  O   UNK A  1      -16.084  -8.780  -0.744  0.00  0.00    -0.479 OA
ATOM     30  H   UNK A  1      -15.948  -9.277  -1.554  0.00  0.00    +0.295 HD
ENDBRANCH  27  29
ENDBRANCH  26  27
BRANCH  26  31
ATOM     31  C   UNK A  1      -17.597  -6.715   0.847  0.00  0.00    +0.045 C 
BRANCH  31  32
ATOM     32  C   UNK A  1      -17.858  -6.121   2.247  0.00  0.00    +0.123 C 
BRANCH  32  33
ATOM     33  C   UNK A  1      -19.334  -6.205   2.632  0.00  0.00    +0.305 C 
ATOM     34  O   UNK A  1      -19.798  -7.067   3.374  0.00  0.00    -0.251 OA
BRANCH  33  35
ATOM     35  O   UNK A  1      -20.074  -5.217   2.053  0.00  0.00    -0.481 OA
ATOM     36  H   UNK A  1      -21.003  -5.266   2.289  0.00  0.00    +0.295 HD
ENDBRANCH  33  35
ENDBRANCH  32  33
ENDBRANCH  31  32
ENDBRANCH  26  31
ENDBRANCH  20  26
ENDBRANCH  19  23
BRANCH  19  37
ATOM     37  C   UNK A  1      -13.089  -1.468   0.758  0.00  0.00    +0.325 C 
ATOM     38  O   UNK A  1      -12.504  -1.041   1.731  0.00  0.00    -0.249 OA
BRANCH  37  39
ATOM     39  O   UNK A  1      -13.982  -0.775  -0.011  0.00  0.00    -0.479 OA
ATOM     40  H   UNK A  1      -14.107   0.125   0.297  0.00  0.00    +0.295 HD
ENDBRANCH  37  39
ENDBRANCH  19  37
ENDBRANCH  18  19
ENDBRANCH  17  18
ENDBRANCH  16  17
ENDBRANCH  15  16
ENDBRANCH  11  15
ENDBRANCH  10  13
ENDBRANCH   9  10
ENDBRANCH   8   9
ENDBRANCH   7   8
ENDBRANCH   6   7
ENDBRANCH   2   6
ENDBRANCH   1   4
BRANCH   1  41
ATOM     41  C   UNK A  1        2.047  -0.233   1.665  0.00  0.00    +0.044 C 
BRANCH  41  42
ATOM     42  C   UNK A  1        1.620  -0.877   2.980  0.00  0.00    -0.046 A 
ATOM     43  C   UNK A  1        2.349  -1.948   3.503  0.00  0.00    +0.012 A 
ATOM     44  C   UNK A  1        2.006  -2.513   4.736  0.00  0.00    +0.008 A 
ATOM     45  C   UNK A  1        0.892  -2.021   5.432  0.00  0.00    +0.121 A 
ATOM     46  C   UNK A  1        0.150  -0.965   4.901  0.00  0.00    +0.046 A 
ATOM     47  C   UNK A  1        0.515  -0.391   3.684  0.00  0.00    +0.007 A 
BRANCH  45  48
ATOM     48  O   UNK A  1        0.519  -2.553   6.640  0.00  0.00    -0.506 OA
ATOM     49  H   UNK A  1       -0.248  -2.116   7.017  0.00  0.00    +0.292 HD
ENDBRANCH  45  48
BRANCH  44  50
ATOM     50  C   UNK A  1        2.862  -3.647   5.295  0.00  0.00    +0.123 C 
BRANCH  50  51
ATOM     51  N   UNK A  1        3.815  -3.201   6.319  0.00  0.00    -0.287 NA
BRANCH  51  52
ATOM     52  C   UNK A  1        4.374  -4.188   7.248  0.00  0.00    +0.100 C 
BRANCH  52  53
ATOM     53  C   UNK A  1        5.454  -5.090   6.601  0.00  0.00    +0.100 C 
BRANCH  53  54
ATOM     54  N   UNK A  1        4.872  -6.061   5.657  0.00  0.00    -0.287 NA
BRANCH  54  55
ATOM     55  C   UNK A  1        4.511  -7.280   6.403  0.00  0.00    +0.205 C 
BRANCH  55  56
ATOM     56  C   UNK A  1        3.536  -8.178   5.617  0.00  0.00    +0.319 C 
ATOM     57  O   UNK A  1        2.917  -7.832   4.610  0.00  0.00    -0.250 OA
BRANCH  56  58
ATOM     58  O   UNK A  1        3.422  -9.399   6.212  0.00  0.00    -0.480 OA
ATOM     59  H   UNK A  1        2.807  -9.972   5.749  0.00  0.00    +0.295 HD
ENDBRANCH  56  58
ENDBRANCH  55  56
ENDBRANCH  54  55
BRANCH  54  60
ATOM     60  C   UNK A  1        5.874  -6.331   4.611  0.00  0.00    +0.123 C 
BRANCH  60  61
ATOM     61  C   UNK A  1        5.702  -5.362   3.441  0.00  0.00    +0.008 A 
ATOM     62  C   UNK A  1        6.523  -4.237   3.263  0.00  0.00    +0.121 A 
ATOM     63  C   UNK A  1        6.274  -3.354   2.210  0.00  0.00    +0.046 A 
ATOM     64  C   UNK A  1        5.217  -3.584   1.330  0.00  0.00    +0.007 A 
ATOM     65  C   UNK A  1        4.403  -4.709   1.487  0.00  0.00    -0.046 A 
ATOM     66  C   UNK A  1        4.666  -5.598   2.532  0.00  0.00    +0.012 A 
BRANCH  62  67
ATOM     67  O   UNK A  1        7.577  -3.980   4.102  0.00  0.00    -0.506 OA
ATOM     68  H   UNK A  1        8.056  -3.184   3.864  0.00  0.00    +0.292 HD
ENDBRANCH  62  67
BRANCH  65  69
ATOM     69  C   UNK A  1        3.247  -4.975   0.528  0.00  0.00    +0.046 C 
BRANCH  69  70
ATOM     70  C   UNK A  1        1.877  -5.106   1.238  0.00  0.00    +0.125 C 
BRANCH  70  71
ATOM     71  C   UNK A  1        0.717  -5.456   0.299  0.00  0.00    +0.305 C 
ATOM     72  O   UNK A  1        0.789  -5.434  -0.928  0.00  0.00    -0.251 OA
BRANCH  71  73
ATOM     73  O   UNK A  1       -0.408  -5.768   1.004  0.00  0.00    -0.481 OA
ATOM     74  H   UNK A  1       -1.149  -5.981   0.434  0.00  0.00    +0.295 HD
ENDBRANCH  71  73
ENDBRANCH  70  71
ENDBRANCH  69  70
ENDBRANCH  65  69
ENDBRANCH  60  61
ENDBRANCH  54  60
ENDBRANCH  53  54
ENDBRANCH  52  53
ENDBRANCH  51  52
BRANCH  51  75
ATOM     75  C   UNK A  1        4.681  -2.053   6.011  0.00  0.00    +0.205 C 
BRANCH  75  76
ATOM     76  C   UNK A  1        4.162  -0.787   6.708  0.00  0.00    +0.319 C 
ATOM     77  O   UNK A  1        3.848   0.229   6.092  0.00  0.00    -0.250 OA
BRANCH  76  78
ATOM     78  O   UNK A  1        4.123  -0.914   8.068  0.00  0.00    -0.480 OA
ATOM     79  H   UNK A  1        3.800  -0.119   8.497  0.00  0.00    +0.295 HD
ENDBRANCH  76  78
ENDBRANCH  75  76
ENDBRANCH  51  75
ENDBRANCH  50  51
ENDBRANCH  44  50
ENDBRANCH  41  42
ENDBRANCH   1  41
TORSDOF 43
