REMARK  Name = DB16065
REMARK                            x       y       z     vdW  Elec       q    Type
REMARK                         _______ _______ _______ _____ _____    ______ ____
ROOT
ATOM      1  C   LIG    1       -0.654  -1.682  -1.449  0.00  0.00    +0.042 C 
ATOM      2  C   LIG    1       -0.800  -0.881  -0.128  0.00  0.00    +0.112 C 
ATOM      3  C   LIG    1       -2.196  -0.294  -0.080  0.00  0.00    +0.249 C 
ATOM      4  O   LIG    1       -3.258  -0.924  -0.088  0.00  0.00    -0.272 OA
ATOM      5  N   LIG    1       -1.993   1.037  -0.040  0.00  0.00    -0.217 N 
ATOM      6  C   LIG    1       -0.686   1.472  -0.031  0.00  0.00    +0.152 C 
ATOM      7  S   LIG    1       -0.111   3.055   0.018  0.00  0.00    -0.017 S 
ATOM      8  N   LIG    1        0.045   0.306  -0.072  0.00  0.00    -0.266 N 
ATOM      9  C   LIG    1       -0.614  -1.814   1.097  0.00  0.00    +0.042 C 
ENDROOT
BRANCH   5  10
ATOM     10  C   LIG    1       -3.110   1.903  -0.015  0.00  0.00    +0.079 A 
ATOM     11  C   LIG    1       -3.693   2.238   1.207  0.00  0.00    +0.028 A 
ATOM     12  C   LIG    1       -4.795   3.085   1.241  0.00  0.00    +0.021 A 
ATOM     13  C   LIG    1       -5.335   3.610   0.061  0.00  0.00    +0.066 A 
ATOM     14  C   LIG    1       -4.757   3.278  -1.191  0.00  0.00    +0.109 A 
ATOM     15  C   LIG    1       -3.642   2.417  -1.206  0.00  0.00    +0.158 A 
ATOM     16  F   LIG    1       -3.066   2.074  -2.385  0.00  0.00    -0.203 F 
BRANCH  14  17
ATOM     17  C   LIG    1       -5.260   3.792  -2.558  0.00  0.00    +0.421 C 
ATOM     18  F   LIG    1       -5.600   2.749  -3.317  0.00  0.00    -0.166 F 
ATOM     19  F   LIG    1       -4.272   4.449  -3.167  0.00  0.00    -0.166 F 
ATOM     20  F   LIG    1       -6.310   4.611  -2.527  0.00  0.00    -0.166 F 
ENDBRANCH  14  17
BRANCH  13  21
ATOM     21  C   LIG    1       -6.491   4.488   0.218  0.00  0.00    +0.100 C 
ATOM     22  N   LIG    1       -7.407   5.183   0.345  0.00  0.00    -0.191 NA
ENDBRANCH  13  21
ENDBRANCH   5  10
BRANCH   8  23
ATOM     23  C   LIG    1        1.451   0.234  -0.061  0.00  0.00    +0.055 A 
ATOM     24  C   LIG    1        2.170   0.055  -1.248  0.00  0.00    +0.027 A 
ATOM     25  C   LIG    1        3.562  -0.026  -1.200  0.00  0.00    +0.025 A 
ATOM     26  C   LIG    1        4.197   0.072   0.044  0.00  0.00    +0.041 A 
ATOM     27  N   LIG    1        3.513   0.243   1.207  0.00  0.00    -0.258 NA
ATOM     28  C   LIG    1        2.159   0.319   1.144  0.00  0.00    +0.134 A 
BRANCH  26  29
ATOM     29  C   LIG    1        5.712   0.004   0.161  0.00  0.00    +0.056 C 
BRANCH  29  30
ATOM     30  C   LIG    1        6.359   1.389   0.353  0.00  0.00    +0.015 C 
BRANCH  30  31
ATOM     31  C   LIG    1        7.897   1.323   0.453  0.00  0.00    +0.096 C 
BRANCH  31  32
ATOM     32  C   LIG    1        8.566   2.677   0.617  0.00  0.00    +0.195 A 
ATOM     33  O   LIG    1        9.922   2.694   0.699  0.00  0.00    -0.448 OA
ATOM     34  C   LIG    1       10.219   4.007   0.835  0.00  0.00    +0.217 A 
ATOM     35  C   LIG    1        9.020   4.697   0.825  0.00  0.00    +0.152 A 
ATOM     36  N   LIG    1        8.004   3.865   0.690  0.00  0.00    -0.222 NA
ENDBRANCH  31  32
ENDBRANCH  30  31
ENDBRANCH  29  30
ENDBRANCH  26  29
ENDBRANCH   8  23
TORSDOF 8
