REMARK  Name = DB16628
REMARK                            x       y       z     vdW  Elec       q    Type
REMARK                         _______ _______ _______ _____ _____    ______ ____
ROOT
ATOM      1  O   LIG    1       -0.206  -1.479  -0.968  0.00  0.00    -0.284 OA
ATOM      2  C   LIG    1       -1.599  -1.205  -1.047  0.00  0.00    +0.206 C 
ATOM      3  C   LIG    1       -2.420  -1.800   0.113  0.00  0.00    +0.181 C 
ATOM      4  O   LIG    1       -2.308  -3.224   0.102  0.00  0.00    -0.349 OA
ATOM      5  C   LIG    1       -3.241  -3.889   0.926  0.00  0.00    +0.231 C 
ATOM      6  N   LIG    1       -2.673  -5.198   1.184  0.00  0.00    -0.302 N 
ATOM      7  H   LIG    1       -2.448  -5.736   0.360  0.00  0.00    +0.150 HD
ATOM      8  C   LIG    1       -2.842  -5.795   2.417  0.00  0.00    +0.127 A 
ATOM      9  N   LIG    1       -2.253  -7.029   2.591  0.00  0.00    -0.315 N 
ATOM     10  H   LIG    1       -1.747  -7.462   1.834  0.00  0.00    +0.170 HD
ATOM     11  C   LIG    1       -2.334  -7.656   3.829  0.00  0.00    +0.195 A 
ATOM     12  N   LIG    1       -2.942  -7.127   4.836  0.00  0.00    -0.176 NA
ATOM     13  C   LIG    1       -3.580  -5.862   4.765  0.00  0.00    +0.297 A 
ATOM     14  O   LIG    1       -4.181  -5.294   5.678  0.00  0.00    -0.264 OA
ATOM     15  C   LIG    1       -3.486  -5.196   3.448  0.00  0.00    +0.133 A 
ATOM     16  N   LIG    1       -4.114  -3.984   3.237  0.00  0.00    -0.326 N 
ATOM     17  H   LIG    1       -4.547  -3.519   4.024  0.00  0.00    +0.147 HD
ATOM     18  C   LIG    1       -3.564  -3.058   2.239  0.00  0.00    +0.180 C 
ATOM     19  C   LIG    1       -2.360  -2.176   2.688  0.00  0.00    +0.218 C 
ATOM     20  C   LIG    1       -1.936  -1.259   1.491  0.00  0.00    +0.222 C 
ATOM     21  O   LIG    1       -0.534  -0.972   1.551  0.00  0.00    -0.275 OA
ATOM     22  P   LIG    1        0.523  -1.626   0.486  0.00  0.00    +0.476 P 
ATOM     23  O   LIG    1        1.893  -1.046   0.544  0.00  0.00    -0.227 OA
ENDROOT
BRANCH  11  24
ATOM     24  N   LIG    1       -1.717  -8.915   3.979  0.00  0.00    -0.329 N 
ATOM     25  H   LIG    1       -1.618  -9.504   3.166  0.00  0.00    +0.145 HD
ATOM     26  H   LIG    1       -1.923  -9.449   4.811  0.00  0.00    +0.145 HD
ENDBRANCH  11  24
BRANCH  19  27
ATOM     27  O   LIG    1       -2.736  -1.372   3.790  0.00  0.00    -0.361 OA
ATOM     28  H   LIG    1       -3.483  -0.829   3.531  0.00  0.00    +0.213 HD
ENDBRANCH  19  27
BRANCH  19  29
ATOM     29  O   LIG    1       -1.285  -2.992   3.122  0.00  0.00    -0.361 OA
ATOM     30  H   LIG    1       -0.587  -2.420   3.449  0.00  0.00    +0.213 HD
ENDBRANCH  19  29
BRANCH  22  31
ATOM     31  O   LIG    1        0.490  -3.221   0.789  0.00  0.00    -0.302 OA
ATOM     32  H   LIG    1        1.215  -3.744   0.398  0.00  0.00    +0.222 HD
ENDBRANCH  22  31
TORSDOF 4
