REMARK  Name = DB16168
REMARK                            x       y       z     vdW  Elec       q    Type
REMARK                         _______ _______ _______ _____ _____    ______ ____
ROOT
ATOM      1  C   LIG    1        1.399  -0.054   0.006  0.00  0.00    +0.181 C 
ATOM      2  C   LIG    1        2.000  -1.314  -0.596  0.00  0.00    +0.130 C 
ATOM      3  F   LIG    1        1.478  -1.907  -1.692  0.00  0.00    -0.208 F 
ATOM      4  C   LIG    1        3.096  -1.720   0.079  0.00  0.00    +0.019 C 
ATOM      5  C   LIG    1        3.344  -0.784   1.258  0.00  0.00    +0.176 C 
ATOM      6  C   LIG    1        1.983  -0.094   1.420  0.00  0.00    +0.177 C 
ENDROOT
BRANCH   1  10
ATOM      7  C   LIG    1       -2.822   0.297  -0.047  0.00  0.00    +0.123 A 
ATOM      8  C   LIG    1       -2.239  -0.990   0.177  0.00  0.00    +0.061 A 
ATOM      9  C   LIG    1       -0.900  -1.050   0.189  0.00  0.00    +0.095 A 
ATOM     10  N   LIG    1       -0.085   0.044   0.002  0.00  0.00    -0.287 N 
ATOM     11  C   LIG    1       -0.673   1.293  -0.175  0.00  0.00    +0.351 A 
ATOM     12  O   LIG    1        0.053   2.282  -0.293  0.00  0.00    -0.244 OA
ATOM     13  N   LIG    1       -2.086   1.340  -0.212  0.00  0.00    -0.178 NA
BRANCH   7  14
ATOM     14  N   LIG    1       -4.160   0.378  -0.080  0.00  0.00    -0.343 N 
ATOM     15  H   LIG    1       -4.611   1.268  -0.235  0.00  0.00    +0.144 HD
ATOM     16  H   LIG    1       -4.728  -0.446   0.048  0.00  0.00    +0.144 HD
ENDBRANCH   7  14
ENDBRANCH   1  10
BRANCH   5  17
ATOM     17  O   LIG    1        4.437   0.087   1.029  0.00  0.00    -0.385 OA
ATOM     18  H   LIG    1        5.228  -0.444   0.907  0.00  0.00    +0.210 HD
ENDBRANCH   5  17
BRANCH   6  19
ATOM     19  O   LIG    1        1.998   1.163   2.074  0.00  0.00    -0.386 OA
ATOM     20  H   LIG    1        2.165   1.021   3.008  0.00  0.00    +0.210 HD
ENDBRANCH   6  19
BRANCH   4  21
ATOM     21  C   LIG    1        3.991  -2.918  -0.189  0.00  0.00    +0.192 C 
BRANCH  21  22
ATOM     22  O   LIG    1        5.322  -2.487  -0.377  0.00  0.00    -0.391 OA
ATOM     23  H   LIG    1        5.869  -3.254  -0.563  0.00  0.00    +0.210 HD
ENDBRANCH  21  22
ENDBRANCH   4  21
TORSDOF 6
