REMARK  Name = DB16142
REMARK                            x       y       z     vdW  Elec       q    Type
REMARK                         _______ _______ _______ _____ _____    ______ ____
ROOT
ATOM      1  C   LIG    1        1.452   0.023  -0.236  0.00  0.00    +0.248 C 
ATOM      2  N   LIG    1        2.043   1.232  -0.385  0.00  0.00    -0.280 N 
ATOM      3  H   LIG    1        1.435   2.030  -0.491  0.00  0.00    +0.155 HD
ATOM      4  O   LIG    1        2.077  -1.040  -0.204  0.00  0.00    -0.270 OA
ENDROOT
BRANCH   1   8
ATOM      5  C   LIG    1       -2.857  -0.022   0.073  0.00  0.00    +0.025 A 
ATOM      6  C   LIG    1       -2.186   1.197   0.036  0.00  0.00    +0.023 A 
ATOM      7  C   LIG    1       -0.797   1.222  -0.065  0.00  0.00    +0.015 A 
ATOM      8  C   LIG    1       -0.061   0.026  -0.131  0.00  0.00    +0.037 A 
ATOM      9  C   LIG    1       -0.756  -1.193  -0.092  0.00  0.00    +0.015 A 
ATOM     10  C   LIG    1       -2.145  -1.218   0.009  0.00  0.00    +0.023 A 
BRANCH   5  11
ATOM     11  N   LIG    1       -4.247  -0.047   0.175  0.00  0.00    -0.358 N 
ATOM     12  H   LIG    1       -4.728  -0.934   0.211  0.00  0.00    +0.142 HD
ATOM     13  H   LIG    1       -4.756   0.824   0.226  0.00  0.00    +0.142 HD
ENDBRANCH   5  11
ENDBRANCH   1   8
BRANCH   2  14
ATOM     14  C   LIG    1        3.421   1.509  -0.502  0.00  0.00    +0.055 A 
ATOM     15  C   LIG    1        3.847   2.552  -1.349  0.00  0.00    +0.046 A 
ATOM     16  C   LIG    1        5.207   2.857  -1.448  0.00  0.00    +0.024 A 
ATOM     17  C   LIG    1        6.147   2.142  -0.708  0.00  0.00    +0.002 A 
ATOM     18  C   LIG    1        5.733   1.119   0.141  0.00  0.00    +0.002 A 
ATOM     19  C   LIG    1        4.379   0.807   0.250  0.00  0.00    +0.025 A 
BRANCH  15  20
ATOM     20  N   LIG    1        2.946   3.305  -2.111  0.00  0.00    -0.357 N 
ATOM     21  H   LIG    1        2.158   2.796  -2.483  0.00  0.00    +0.142 HD
ATOM     22  H   LIG    1        3.357   4.025  -2.687  0.00  0.00    +0.142 HD
ENDBRANCH  15  20
ENDBRANCH   2  14
TORSDOF 4
