REMARK  Name = DB16306
REMARK                            x       y       z     vdW  Elec       q    Type
REMARK                         _______ _______ _______ _____ _____    ______ ____
ROOT
ATOM      1  C   LIG    1        1.575  -0.041   0.041  0.00  0.00    +0.029 C 
ATOM      2  C   LIG    1        2.009  -1.527  -0.011  0.00  0.00    +0.001 C 
ENDROOT
BRANCH   1   3
ATOM      3  N   LIG    1        2.124   0.623  -1.238  0.00  0.00    +0.389 N 
ATOM      4  H   LIG    1        1.865   1.599  -1.259  0.00  0.00    -0.088 HD
ATOM      5  H   LIG    1        3.130   0.541  -1.268  0.00  0.00    -0.088 HD
ATOM      6  H   LIG    1        1.739   0.168  -2.054  0.00  0.00    -0.088 HD
ENDBRANCH   1   3
BRANCH   1   7
ATOM      7  C   LIG    1        2.220   0.664   1.285  0.00  0.00    +0.293 C 
ATOM      8  O   LIG    1        1.886   0.233   2.412  0.00  0.00    -0.253 OA
BRANCH   7   9
ATOM      9  O   LIG    1        3.024   1.615   1.132  0.00  0.00    -0.482 OA
ATOM     10  H   LIG    1        3.247   1.906   0.269  0.00  0.00    +0.295 HD
ENDBRANCH   7   9
ENDBRANCH   1   7
BRANCH   1  11
ATOM     11  C   LIG    1        0.019   0.091   0.028  0.00  0.00    +0.033 C 
BRANCH  11  12
ATOM     12  C   LIG    1       -0.541   1.515   0.017  0.00  0.00    -0.048 A 
ATOM     13  C   LIG    1       -0.769   2.165  -1.199  0.00  0.00    +0.007 A 
ATOM     14  C   LIG    1       -1.282   3.460  -1.212  0.00  0.00    +0.045 A 
ATOM     15  C   LIG    1       -1.569   4.102  -0.009  0.00  0.00    +0.117 A 
ATOM     16  C   LIG    1       -1.349   3.457   1.208  0.00  0.00    +0.045 A 
ATOM     17  C   LIG    1       -0.838   2.162   1.220  0.00  0.00    +0.007 A 
BRANCH  15  18
ATOM     18  O   LIG    1       -2.072   5.376  -0.021  0.00  0.00    -0.507 OA
ATOM     19  H   LIG    1       -2.187   5.724  -0.908  0.00  0.00    +0.292 HD
ENDBRANCH  15  18
ENDBRANCH  11  12
ENDBRANCH   1  11
TORSDOF 6
