REMARK  Name = DB16177
REMARK                            x       y       z     vdW  Elec       q    Type
REMARK                         _______ _______ _______ _____ _____    ______ ____
ROOT
ATOM      1  O   LIG    1       -0.355  -0.714  -2.763  0.00  0.00    -0.247 OA
ATOM      2  C   LIG    1       -0.217   0.475  -2.483  0.00  0.00    +0.346 C 
ATOM      3  O   LIG    1       -1.029   1.357  -3.117  0.00  0.00    -0.451 OA
ATOM      4  C   LIG    1       -1.025   2.754  -2.789  0.00  0.00    +0.352 C 
ATOM      5  C   LIG    1        0.236   3.354  -2.142  0.00  0.00    +0.346 C 
ATOM      6  O   LIG    1        0.541   4.543  -2.092  0.00  0.00    -0.247 OA
ATOM      7  O   LIG    1        1.099   2.472  -1.577  0.00  0.00    -0.451 OA
ATOM      8  C   LIG    1        0.792   1.073  -1.486  0.00  0.00    +0.352 C 
ENDROOT
TORSDOF 0
