REMARK  Name = DB16035
REMARK                            x       y       z     vdW  Elec       q    Type
REMARK                         _______ _______ _______ _____ _____    ______ ____
ROOT
ATOM      1  C   LIG    1        1.745   0.629  -1.042  0.00  0.00    +0.131 A 
ATOM      2  C   LIG    1        2.083   0.522   0.304  0.00  0.00    +0.047 A 
ATOM      3  C   LIG    1        3.415   0.487   0.702  0.00  0.00    +0.013 A 
ATOM      4  C   LIG    1        4.477   0.547  -0.252  0.00  0.00    -0.006 A 
ATOM      5  C   LIG    1        5.878   0.515   0.096  0.00  0.00    +0.045 A 
ATOM      6  C   LIG    1        6.831   0.617  -0.926  0.00  0.00    +0.014 A 
ATOM      7  C   LIG    1        6.463   0.733  -2.259  0.00  0.00    +0.001 A 
ATOM      8  C   LIG    1        5.123   0.751  -2.620  0.00  0.00    +0.008 A 
ATOM      9  C   LIG    1        4.113   0.662  -1.635  0.00  0.00    -0.014 A 
ATOM     10  C   LIG    1        2.746   0.691  -2.006  0.00  0.00    +0.054 A 
ENDROOT
BRANCH   5  11
ATOM     11  C   LIG    1        6.355   0.354   1.523  0.00  0.00    +0.249 C 
ATOM     12  N   LIG    1        7.343   1.205   1.885  0.00  0.00    -0.281 N 
ATOM     13  H   LIG    1        7.617   1.885   1.192  0.00  0.00    +0.155 HD
ATOM     14  O   LIG    1        5.853  -0.501   2.253  0.00  0.00    -0.270 OA
BRANCH  12  15
ATOM     15  C   LIG    1        8.034   1.310   3.107  0.00  0.00    +0.034 A 
ATOM     16  C   LIG    1        7.993   0.355   4.139  0.00  0.00    +0.035 A 
ATOM     17  C   LIG    1        8.724   0.545   5.319  0.00  0.00    +0.057 A 
ATOM     18  C   LIG    1        9.504   1.698   5.462  0.00  0.00    +0.012 A 
ATOM     19  C   LIG    1        9.557   2.644   4.439  0.00  0.00    +0.002 A 
ATOM     20  C   LIG    1        8.828   2.449   3.268  0.00  0.00    +0.023 A 
BRANCH  17  21
ATOM     21  C   LIG    1        8.656  -0.510   6.423  0.00  0.00    +0.417 C 
ATOM     22  F   LIG    1        7.388  -0.693   6.793  0.00  0.00    -0.166 F 
ATOM     23  F   LIG    1        9.357  -0.163   7.504  0.00  0.00    -0.166 F 
ATOM     24  F   LIG    1        9.142  -1.665   5.966  0.00  0.00    -0.166 F 
ENDBRANCH  17  21
ENDBRANCH  12  15
ENDBRANCH   5  11
BRANCH   1  25
ATOM     25  O   LIG    1        0.426   0.650  -1.439  0.00  0.00    -0.438 OA
BRANCH  25  30
ATOM     26  CA  LIG    1       -2.578   2.714  -1.183  0.00  0.00    +0.073 A 
ATOM     27  N   LIG    1       -2.090   3.850  -0.613  0.00  0.00    -0.238 NA
ATOM     28  C   LIG    1       -0.760   3.858  -0.342  0.00  0.00    +0.225 A 
ATOM     29  N   LIG    1        0.113   2.848  -0.586  0.00  0.00    -0.201 NA
ATOM     30  C   LIG    1       -0.406   1.720  -1.158  0.00  0.00    +0.224 A 
ATOM     31  C   LIG    1       -1.764   1.614  -1.476  0.00  0.00    +0.093 A 
BRANCH  26  32
ATOM     32  C   LIG    1       -4.067   2.694  -1.491  0.00  0.00    +0.211 C 
BRANCH  32  33
ATOM     33  O   LIG    1       -4.787   1.843  -0.624  0.00  0.00    -0.389 OA
ATOM     34  H   LIG    1       -5.720   1.901  -0.843  0.00  0.00    +0.210 HD
ENDBRANCH  32  33
ENDBRANCH  26  32
ENDBRANCH  25  30
ENDBRANCH   1  25
TORSDOF 7
