REMARK  Name = DB16053
REMARK                            x       y       z     vdW  Elec       q    Type
REMARK                         _______ _______ _______ _____ _____    ______ ____
ROOT
ATOM      1  C   LIG    1        3.712   0.032  -0.299  0.00  0.00    +0.037 A 
ATOM      2  C   LIG    1        4.174   0.450   0.960  0.00  0.00    +0.016 A 
ATOM      3  C   LIG    1        5.530   0.392   1.272  0.00  0.00    +0.047 A 
ATOM      4  C   LIG    1        6.446  -0.092   0.341  0.00  0.00    +0.129 A 
ATOM      5  C   LIG    1        5.999  -0.489  -0.925  0.00  0.00    +0.047 A 
ATOM      6  C   LIG    1        4.644  -0.429  -1.239  0.00  0.00    +0.016 A 
ENDROOT
BRANCH   1   9
ATOM      7  N   LIG    1        1.375   0.208   0.362  0.00  0.00    -0.311 N 
ATOM      8  H   LIG    1        1.740   0.257   1.302  0.00  0.00    +0.149 HD
ATOM      9  C   LIG    1        2.243   0.080  -0.661  0.00  0.00    +0.244 C 
ATOM     10  O   LIG    1        1.877  -0.018  -1.835  0.00  0.00    -0.270 OA
BRANCH   7  11
ATOM     11  C   LIG    1       -0.079   0.263   0.226  0.00  0.00    +0.109 C 
BRANCH  11  12
ATOM     12  C   LIG    1       -0.612   1.632  -0.243  0.00  0.00    +0.057 C 
BRANCH  12  14
ATOM     13  C   LIG    1       -2.881   1.080  -1.267  0.00  0.00    +0.125 A 
ATOM     14  C   LIG    1       -2.136   1.704  -0.251  0.00  0.00    -0.004 A 
ATOM     15  C   LIG    1       -2.791   2.400   0.771  0.00  0.00    +0.009 A 
ATOM     16  C   LIG    1       -4.181   2.480   0.793  0.00  0.00    +0.020 A 
ATOM     17  C   LIG    1       -4.928   1.865  -0.209  0.00  0.00    +0.044 A 
ATOM     18 CL   LIG    1       -6.651   1.964  -0.184  0.00  0.00    -0.083 Cl
ATOM     19  C   LIG    1       -4.284   1.170  -1.232  0.00  0.00    +0.066 A 
BRANCH  13  21
ATOM     20  C   LIG    1       -2.894  -0.249  -3.297  0.00  0.00    +0.277 C 
ATOM     21  O   LIG    1       -2.181   0.406  -2.253  0.00  0.00    -0.495 OA
ENDBRANCH  13  21
ENDBRANCH  12  14
ENDBRANCH  11  12
ENDBRANCH   7  11
ENDBRANCH   1   9
BRANCH   4  22
ATOM     22  O   LIG    1        7.777  -0.117   0.701  0.00  0.00    -0.454 OA
BRANCH  22  23
ATOM     23  C   LIG    1        8.612  -1.110   0.233  0.00  0.00    +0.150 A 
ATOM     24  C   LIG    1        9.803  -0.768  -0.414  0.00  0.00    +0.084 A 
ATOM     25 CL   LIG    1       10.238   0.890  -0.639  0.00  0.00    -0.080 Cl
ATOM     26  C   LIG    1       10.650  -1.768  -0.893  0.00  0.00    +0.031 A 
ATOM     27  C   LIG    1       10.350  -3.126  -0.724  0.00  0.00    +0.010 A 
ATOM     28  C   LIG    1       11.289  -4.226  -1.231  0.00  0.00    +0.134 C 
ATOM     29  C   LIG    1       10.523  -5.577  -1.331  0.00  0.00    +0.060 C 
ATOM     30  C   LIG    1        9.585  -5.802  -0.125  0.00  0.00    +0.230 C 
ATOM     31  O   LIG    1        8.637  -4.742   0.003  0.00  0.00    -0.492 OA
ATOM     32  C   LIG    1        9.135  -3.456  -0.088  0.00  0.00    +0.128 A 
ATOM     33  C   LIG    1        8.283  -2.460   0.390  0.00  0.00    +0.093 A 
BRANCH  28  34
ATOM     34  C   LIG    1       12.594  -4.331  -0.379  0.00  0.00    +0.312 C 
ATOM     35  O   LIG    1       13.551  -3.600  -0.724  0.00  0.00    -0.250 OA
BRANCH  34  36
ATOM     36  O   LIG    1       12.645  -5.108   0.603  0.00  0.00    -0.480 OA
ATOM     37  H   LIG    1       13.429  -5.168   1.112  0.00  0.00    +0.295 HD
ENDBRANCH  34  36
ENDBRANCH  28  34
ENDBRANCH  22  23
ENDBRANCH   4  22
TORSDOF 9
