REMARK  Name = DB16837
REMARK                            x       y       z     vdW  Elec       q    Type
REMARK                         _______ _______ _______ _____ _____    ______ ____
ROOT
ATOM      1  C   LIG    1       -2.221   1.065  -0.800  0.00  0.00    +0.044 A 
ATOM      2 CL   LIG    1       -3.111   2.482  -1.225  0.00  0.00    -0.083 Cl
ATOM      3  C   LIG    1       -2.898  -0.084  -0.392  0.00  0.00    +0.047 A 
ATOM      4  C   LIG    1       -2.186  -1.245  -0.058  0.00  0.00    +0.080 A 
ATOM      5  N   LIG    1       -2.799  -2.438   0.403  0.00  0.00    -0.269 N 
ATOM      6  C   LIG    1       -4.215  -2.370   0.804  0.00  0.00    +0.138 C 
ATOM      7  C   LIG    1       -2.196  -3.662   0.417  0.00  0.00    +0.257 C 
ATOM      8  O   LIG    1       -2.706  -4.724   0.782  0.00  0.00    -0.272 OA
ATOM      9  C   LIG    1       -0.728  -3.579  -0.084  0.00  0.00    +0.325 C 
ATOM     10  O   LIG    1       -0.094  -2.341   0.286  0.00  0.00    -0.480 OA
ATOM     11  C   LIG    1       -0.784  -1.215  -0.119  0.00  0.00    +0.155 A 
ATOM     12  C   LIG    1       -0.083  -0.062  -0.515  0.00  0.00    +0.082 A 
ATOM     13  C   LIG    1       -0.828   1.075  -0.864  0.00  0.00    +0.036 A 
ENDROOT
BRANCH  12  14
ATOM     14  C   LIG    1        1.426  -0.041  -0.587  0.00  0.00    +0.248 C 
ATOM     15  O   LIG    1        2.059  -1.030  -0.962  0.00  0.00    -0.270 OA
ATOM     16  N   LIG    1        2.013   1.113  -0.214  0.00  0.00    -0.310 N 
ATOM     17  H   LIG    1        1.421   1.885   0.055  0.00  0.00    +0.149 HD
BRANCH  16  18
ATOM     18  C   LIG    1        3.460   1.362  -0.196  0.00  0.00    +0.060 C 
ATOM     19  C   LIG    1        4.080   1.580  -1.620  0.00  0.00    +0.004 C 
ATOM     20  C   LIG    1        5.565   2.030  -1.473  0.00  0.00    -0.014 C 
ATOM     21  C   LIG    1        5.739   3.326  -0.645  0.00  0.00    -0.078 C 
ATOM     22  N   LIG    1        4.349   3.755  -0.129  0.00  0.00    +0.381 N 
ATOM     23  H   LIG    1        4.444   4.581   0.447  0.00  0.00    -0.082 HD
ATOM     24  C   LIG    1        3.433   4.064  -1.340  0.00  0.00    -0.078 C 
ATOM     25  C   LIG    1        3.357   2.807  -2.252  0.00  0.00    -0.014 C 
ATOM     26  C   LIG    1        3.761   2.597   0.716  0.00  0.00    -0.056 C 
ENDBRANCH  16  18
ENDBRANCH  12  14
TORSDOF 2
