REMARK  Name = DB16255
REMARK                            x       y       z     vdW  Elec       q    Type
REMARK                         _______ _______ _______ _____ _____    ______ ____
ROOT
ATOM      1  C   LIG    1       -0.356  -1.242   0.687  0.00  0.00    +0.268 C 
ATOM      2  N   LIG    1        0.073   0.010   0.328  0.00  0.00    -0.288 N 
ATOM      3  O   LIG    1       -1.507  -1.422   1.094  0.00  0.00    -0.268 OA
ENDROOT
BRANCH   1  17
ATOM      4  C   LIG    1        3.488  -4.009  -0.421  0.00  0.00    +0.173 C 
ATOM      5  N   LIG    1        2.175  -3.695   0.121  0.00  0.00    -0.266 N 
ATOM      6  C   LIG    1        1.283  -4.521   0.753  0.00  0.00    +0.079 A 
ATOM      7  C   LIG    1        1.303  -5.970   1.069  0.00  0.00    +0.043 A 
ATOM      8  C   LIG    1        2.433  -6.795   1.074  0.00  0.00    +0.033 A 
ATOM      9  C   LIG    1        2.314  -8.147   1.402  0.00  0.00    +0.042 A 
ATOM     10 CL   LIG    1        3.712  -9.158   1.406  0.00  0.00    -0.084 Cl
ATOM     11  C   LIG    1        1.066  -8.682   1.726  0.00  0.00    +0.023 A 
ATOM     12  C   LIG    1       -0.066  -7.866   1.730  0.00  0.00    +0.048 A 
ATOM     13  C   LIG    1        0.053  -6.513   1.413  0.00  0.00    +0.130 A 
ATOM     14  O   LIG    1       -1.118  -5.770   1.403  0.00  0.00    -0.487 OA
ATOM     15  C   LIG    1       -1.005  -4.366   1.716  0.00  0.00    +0.269 C 
ATOM     16  C   LIG    1        0.197  -3.716   1.033  0.00  0.00    +0.047 A 
ATOM     17  C   LIG    1        0.528  -2.409   0.587  0.00  0.00    +0.154 A 
ATOM     18  N   LIG    1        1.729  -2.439   0.038  0.00  0.00    -0.166 NA
ENDBRANCH   1  17
BRANCH   2  19
ATOM     19  C   LIG    1        1.444   0.423  -0.036  0.00  0.00    +0.143 C 
BRANCH  19  20
ATOM     20  C   LIG    1        1.836   0.277  -1.508  0.00  0.00    -0.030 A 
ATOM     21  C   LIG    1        0.887   0.122  -2.521  0.00  0.00    +0.006 A 
ATOM     22  C   LIG    1        1.292  -0.040  -3.843  0.00  0.00    +0.015 A 
ATOM     23  C   LIG    1        2.656  -0.056  -4.191  0.00  0.00    +0.059 A 
ATOM     24  C   LIG    1        3.596   0.095  -3.154  0.00  0.00    +0.015 A 
ATOM     25  C   LIG    1        3.191   0.257  -1.832  0.00  0.00    +0.006 A 
BRANCH  23  26
ATOM     26  C   LIG    1        3.097  -0.233  -5.631  0.00  0.00    +0.337 C 
ATOM     27  O   LIG    1        2.222  -0.354  -6.521  0.00  0.00    -0.245 OA
BRANCH  26  28
ATOM     28  O   LIG    1        4.325  -0.252  -5.889  0.00  0.00    -0.477 OA
ATOM     29  H   LIG    1        4.616  -0.360  -6.773  0.00  0.00    +0.295 HD
ENDBRANCH  26  28
ENDBRANCH  23  26
ENDBRANCH  19  20
ENDBRANCH   2  19
BRANCH   2  30
ATOM     30  C   LIG    1       -0.868   1.150   0.322  0.00  0.00    +0.143 C 
BRANCH  30  31
ATOM     31  C   LIG    1       -0.729   2.090   1.515  0.00  0.00    -0.030 A 
ATOM     32  C   LIG    1       -0.906   1.612   2.817  0.00  0.00    +0.005 A 
ATOM     33  C   LIG    1       -0.785   2.480   3.899  0.00  0.00    +0.000 A 
ATOM     34  C   LIG    1       -0.490   3.823   3.676  0.00  0.00    +0.000 A 
ATOM     35  C   LIG    1       -0.316   4.307   2.381  0.00  0.00    +0.000 A 
ATOM     36  C   LIG    1       -0.439   3.440   1.298  0.00  0.00    +0.005 A 
ENDBRANCH  30  31
ENDBRANCH   2  30
TORSDOF 7
