REMARK  Name = DB16640
REMARK                            x       y       z     vdW  Elec       q    Type
REMARK                         _______ _______ _______ _____ _____    ______ ____
ROOT
ATOM      1  C   LIG    1       -1.501  -1.568   1.106  0.00  0.00    +0.143 A 
ATOM      2  C   LIG    1       -2.370  -0.509   0.784  0.00  0.00    +0.078 A 
ATOM      3  C   LIG    1       -1.841   0.715   0.374  0.00  0.00    +0.052 A 
ATOM      4  C   LIG    1       -0.458   0.932   0.314  0.00  0.00    +0.057 A 
ATOM      5  C   LIG    1        0.428  -0.102   0.680  0.00  0.00    +0.055 A 
ATOM      6  C   LIG    1       -0.116  -1.336   1.072  0.00  0.00    +0.072 A 
ENDROOT
BRANCH   4   7
ATOM      7  N   LIG    1        0.038   2.208  -0.021  0.00  0.00    -0.280 N 
ATOM      8  H   LIG    1        0.841   2.519   0.507  0.00  0.00    +0.155 HD
ATOM      9  C   LIG    1       -0.357   2.974  -1.060  0.00  0.00    +0.241 C 
ATOM     10  O   LIG    1       -1.225   2.644  -1.873  0.00  0.00    -0.271 OA
BRANCH   9  11
ATOM     11  C   LIG    1        0.352   4.232  -1.124  0.00  0.00    +0.060 C 
ATOM     12  C   LIG    1        0.125   5.147  -2.084  0.00  0.00    +0.013 C 
ENDBRANCH   9  11
ENDBRANCH   4   7
BRANCH   1  14
ATOM     13  C   LIG    1       -1.197  -3.902   1.729  0.00  0.00    +0.277 C 
ATOM     14  O   LIG    1       -2.044  -2.809   1.391  0.00  0.00    -0.493 OA
ENDBRANCH   1  14
BRANCH   2  15
ATOM     15  N   LIG    1       -3.774  -0.604   0.814  0.00  0.00    -0.281 N 
ATOM     16  H   LIG    1       -4.243  -0.042   0.118  0.00  0.00    +0.155 HD
BRANCH  15  17
ATOM     17  C   LIG    1       -4.653  -1.321   1.641  0.00  0.00    +0.220 A 
ATOM     18  N   LIG    1       -4.208  -1.814   2.829  0.00  0.00    -0.223 NA
ATOM     19  C   LIG    1       -5.114  -2.475   3.596  0.00  0.00    +0.116 A 
ATOM     20  C   LIG    1       -6.445  -2.635   3.209  0.00  0.00    +0.048 A 
ATOM     21  C   LIG    1       -6.826  -2.071   1.985  0.00  0.00    +0.078 A 
ATOM     22  N   LIG    1       -5.933  -1.412   1.195  0.00  0.00    -0.214 NA
BRANCH  21  23
ATOM     23  C   LIG    1       -8.221  -2.192   1.463  0.00  0.00    +0.026 A 
ATOM     24  C   LIG    1       -8.686  -2.119   0.097  0.00  0.00    +0.009 A 
ATOM     25  C   LIG    1       -8.058  -1.917  -1.146  0.00  0.00    +0.010 A 
ATOM     26  C   LIG    1       -8.827  -1.892  -2.307  0.00  0.00    +0.001 A 
ATOM     27  C   LIG    1      -10.206  -2.065  -2.258  0.00  0.00    +0.002 A 
ATOM     28  C   LIG    1      -10.878  -2.275  -1.056  0.00  0.00    +0.026 A 
ATOM     29  C   LIG    1      -10.107  -2.305   0.115  0.00  0.00    +0.050 A 
ATOM     30  N   LIG    1      -10.475  -2.504   1.434  0.00  0.00    -0.343 N 
ATOM     31  C   LIG    1       -9.354  -2.423   2.223  0.00  0.00    +0.097 A 
BRANCH  30  32
ATOM     32  C   LIG    1      -11.829  -2.715   1.928  0.00  0.00    +0.087 C 
ATOM     33  C   LIG    1      -12.592  -3.936   1.456  0.00  0.00    +0.027 C 
ATOM     34  C   LIG    1      -12.090  -3.871   2.873  0.00  0.00    +0.027 C 
ENDBRANCH  30  32
ENDBRANCH  21  23
ENDBRANCH  15  17
ENDBRANCH   2  15
BRANCH   5  35
ATOM     35  N   LIG    1        1.838   0.064   0.623  0.00  0.00    -0.333 N 
ATOM     36  C   LIG    1        2.657  -0.639   1.609  0.00  0.00    +0.129 C 
BRANCH  35  37
ATOM     37  C   LIG    1        2.429   0.238  -0.711  0.00  0.00    +0.086 C 
BRANCH  37  38
ATOM     38  C   LIG    1        2.465  -1.042  -1.585  0.00  0.00    -0.060 C 
BRANCH  38  39
ATOM     39  N   LIG    1        1.068  -1.410  -2.142  0.00  0.00    +0.377 N 
ATOM     40  H   LIG    1        0.425  -1.371  -1.363  0.00  0.00    -0.083 HD
ATOM     41  C   LIG    1        0.551  -0.426  -3.211  0.00  0.00    -0.097 C 
ATOM     42  C   LIG    1        1.033  -2.857  -2.670  0.00  0.00    -0.097 C 
ENDBRANCH  38  39
ENDBRANCH  37  38
ENDBRANCH  35  37
ENDBRANCH   5  35
TORSDOF 11
