REMARK  Name = DB16079
REMARK                            x       y       z     vdW  Elec       q    Type
REMARK                         _______ _______ _______ _____ _____    ______ ____
ROOT
ATOM      1  C   LIG    1       -0.047   0.105   0.063  0.00  0.00    +0.090 C 
ATOM      2  C   LIG    1       -0.542  -0.490   1.411  0.00  0.00    +0.101 C 
ATOM      3  O   LIG    1       -0.621   0.362   2.521  0.00  0.00    -0.368 OA
ATOM      4  C   LIG    1       -1.854  -0.034   1.968  0.00  0.00    +0.196 C 
ATOM      5  C   LIG    1       -0.098  -1.949   1.657  0.00  0.00    +0.041 C 
ATOM      6  C   LIG    1       -0.489  -2.867   0.482  0.00  0.00    +0.050 C 
ATOM      7  C   LIG    1        0.007  -2.301  -0.866  0.00  0.00    +0.207 C 
ATOM      8  C   LIG    1       -0.501  -0.846  -1.091  0.00  0.00    +0.167 C 
ENDROOT
BRANCH   1   9
ATOM      9  C   LIG    1        1.453   0.553   0.044  0.00  0.00    +0.101 C 
ATOM     10  C   LIG    1        2.382   0.143  -1.077  0.00  0.00    +0.155 C 
ATOM     11  O   LIG    1        2.430  -0.453   0.192  0.00  0.00    -0.364 OA
ATOM     12  C   LIG    1        1.712   1.871   0.808  0.00  0.00    +0.045 C 
BRANCH  10  13
ATOM     13  C   LIG    1        3.591   0.991  -1.512  0.00  0.00    +0.061 C 
BRANCH  13  14
ATOM     14  C   LIG    1        4.669   0.162  -2.189  0.00  0.00    -0.026 C 
ATOM     15  C   LIG    1        4.837  -0.035  -3.514  0.00  0.00    -0.080 C 
ATOM     16  C   LIG    1        3.919   0.525  -4.592  0.00  0.00    +0.038 C 
ATOM     17  C   LIG    1        5.983  -0.876  -4.049  0.00  0.00    +0.038 C 
ENDBRANCH  13  14
ENDBRANCH  10  13
ENDBRANCH   1   9
BRANCH   8  18
ATOM     18  O   LIG    1       -1.929  -0.899  -1.187  0.00  0.00    -0.376 OA
ATOM     19  C   LIG    1       -2.542   0.154  -1.921  0.00  0.00    +0.194 C 
ENDBRANCH   8  18
BRANCH   7  20
ATOM     20  O   LIG    1       -0.386  -3.182  -1.920  0.00  0.00    -0.444 OA
BRANCH  20  21
ATOM     21  C   LIG    1        0.251  -3.208  -3.117  0.00  0.00    +0.403 C 
ATOM     22  N   LIG    1       -0.386  -4.093  -3.971  0.00  0.00    -0.267 N 
ATOM     23  C   LIG    1       -0.546  -4.091  -5.442  0.00  0.00    +0.116 C 
ATOM     24  C   LIG    1       -1.450  -5.324  -5.245  0.00  0.00    +0.022 C 
ATOM     25  C   LIG    1       -1.147  -5.340  -3.733  0.00  0.00    +0.116 C 
ATOM     26  O   LIG    1        1.240  -2.534  -3.407  0.00  0.00    -0.226 OA
BRANCH  24  27
ATOM     27  C   LIG    1       -0.982  -6.569  -6.030  0.00  0.00    -0.012 C 
BRANCH  27  28
ATOM     28  C   LIG    1       -1.927  -7.785  -5.925  0.00  0.00    -0.078 C 
BRANCH  28  29
ATOM     29  N   LIG    1       -2.031  -8.316  -4.475  0.00  0.00    +0.383 N 
ATOM     30  H   LIG    1       -2.187  -7.532  -3.857  0.00  0.00    -0.082 HD
ATOM     31  C   LIG    1       -0.737  -9.029  -4.017  0.00  0.00    -0.050 C 
ATOM     32  C   LIG    1       -0.943  -9.563  -2.586  0.00  0.00    +0.141 C 
ATOM     33  O   LIG    1       -2.086 -10.412  -2.526  0.00  0.00    -0.383 OA
ATOM     34  C   LIG    1       -3.310  -9.772  -2.877  0.00  0.00    +0.141 C 
ATOM     35  C   LIG    1       -3.254  -9.249  -4.327  0.00  0.00    -0.050 C 
ENDBRANCH  28  29
ENDBRANCH  27  28
ENDBRANCH  24  27
ENDBRANCH  20  21
ENDBRANCH   7  20
TORSDOF 9
