REMARK  Name = DB16881
REMARK                            x       y       z     vdW  Elec       q    Type
REMARK                         _______ _______ _______ _____ _____    ______ ____
ROOT
ATOM      1  C   LIG    1       -3.580  -1.449   0.354  0.00  0.00    +0.066 C 
ATOM      2  C   LIG    1       -2.248  -0.752   0.170  0.00  0.00    +0.046 A 
ATOM      3  N   LIG    1       -2.093   0.617   0.040  0.00  0.00    -0.234 N 
ATOM      4  N   LIG    1       -0.802   0.975  -0.083  0.00  0.00    -0.128 NA
ATOM      5  C   LIG    1       -0.116  -0.149  -0.044  0.00  0.00    +0.234 A 
ATOM      6  C   LIG    1       -0.958  -1.250   0.112  0.00  0.00    +0.091 A 
ENDROOT
BRANCH   3   7
ATOM      7  C   LIG    1       -3.089   1.617   0.016  0.00  0.00    +0.066 A 
ATOM      8  C   LIG    1       -4.177   1.495  -0.853  0.00  0.00    +0.036 A 
ATOM      9  C   LIG    1       -5.184   2.491  -0.890  0.00  0.00    -0.016 A 
ATOM     10  C   LIG    1       -6.296   2.394  -1.763  0.00  0.00    +0.008 A 
ATOM     11  C   LIG    1       -7.269   3.390  -1.775  0.00  0.00    +0.001 A 
ATOM     12  C   LIG    1       -7.165   4.492  -0.933  0.00  0.00    +0.001 A 
ATOM     13  C   LIG    1       -6.084   4.618  -0.064  0.00  0.00    +0.008 A 
ATOM     14  C   LIG    1       -5.074   3.624  -0.027  0.00  0.00    -0.018 A 
ATOM     15  C   LIG    1       -3.959   3.724   0.841  0.00  0.00    +0.010 A 
ATOM     16  C   LIG    1       -2.984   2.731   0.853  0.00  0.00    +0.028 A 
ENDBRANCH   3   7
BRANCH   5  17
ATOM     17  O   LIG    1        1.256  -0.212  -0.144  0.00  0.00    -0.474 OA
BRANCH  17  18
ATOM     18  C   LIG    1        1.970   1.016  -0.304  0.00  0.00    +0.246 C 
BRANCH  18  19
ATOM     19  C   LIG    1        3.488   0.742  -0.307  0.00  0.00    +0.125 C 
BRANCH  19  20
ATOM     20  N   LIG    1        3.970   0.045   0.892  0.00  0.00    -0.295 NA
ATOM     21  C   LIG    1        3.783   0.820   2.129  0.00  0.00    +0.112 C 
ATOM     22  C   LIG    1        4.392   0.100   3.351  0.00  0.00    +0.175 C 
ATOM     23  O   LIG    1        5.758  -0.216   3.106  0.00  0.00    -0.377 OA
ATOM     24  C   LIG    1        5.919  -1.069   1.978  0.00  0.00    +0.175 C 
ATOM     25  C   LIG    1        5.364  -0.381   0.712  0.00  0.00    +0.112 C 
ENDBRANCH  19  20
ENDBRANCH  18  19
ENDBRANCH  17  18
ENDBRANCH   5  17
TORSDOF 5
