REMARK  Name = DB16157
REMARK                            x       y       z     vdW  Elec       q    Type
REMARK                         _______ _______ _______ _____ _____    ______ ____
ROOT
ATOM      1  C   LIG    1        1.436   7.524   0.686  0.00  0.00    +0.162 A 
ATOM      2  C   LIG    1        0.155   7.449   0.119  0.00  0.00    +0.053 A 
ATOM      3  C   LIG    1       -0.467   6.220  -0.110  0.00  0.00    -0.033 A 
ATOM      4  C   LIG    1       -1.845   6.114  -0.731  0.00  0.00    +0.057 C 
ATOM      5  C   LIG    1       -2.647   4.992  -0.039  0.00  0.00    +0.131 C 
ATOM      6  N   LIG    1       -1.888   3.712  -0.086  0.00  0.00    -0.293 N 
ATOM      7  C   LIG    1       -0.498   3.713   0.014  0.00  0.00    +0.057 A 
ATOM      8  C   LIG    1        0.192   2.555  -0.072  0.00  0.00    +0.073 A 
ATOM      9  C   LIG    1       -0.464   1.280  -0.257  0.00  0.00    +0.140 A 
ATOM     10  N   LIG    1        0.138   0.149  -0.374  0.00  0.00    -0.229 NA
ATOM     11  N   LIG    1       -1.857   1.369  -0.284  0.00  0.00    -0.277 N 
ATOM     12  C   LIG    1       -2.610   2.536  -0.165  0.00  0.00    +0.331 A 
ATOM     13  O   LIG    1       -3.847   2.542  -0.111  0.00  0.00    -0.246 OA
ATOM     14  C   LIG    1        0.184   5.031   0.240  0.00  0.00    +0.006 A 
ATOM     15  C   LIG    1        1.466   5.108   0.806  0.00  0.00    +0.059 A 
ATOM     16  C   LIG    1        2.099   6.341   1.032  0.00  0.00    +0.162 A 
ENDROOT
BRANCH  10  17
ATOM     17  C   LIG    1        1.539   0.022  -0.323  0.00  0.00    +0.072 A 
ATOM     18  C   LIG    1        2.322   0.163  -1.490  0.00  0.00    -0.025 A 
ATOM     19  C   LIG    1        1.676   0.373  -2.855  0.00  0.00    +0.046 C 
ATOM     20  C   LIG    1        3.716   0.101  -1.418  0.00  0.00    +0.008 A 
ATOM     21  C   LIG    1        4.358  -0.085  -0.196  0.00  0.00    -0.050 A 
ATOM     22  C   LIG    1        5.873  -0.157  -0.135  0.00  0.00    +0.044 C 
ATOM     23  C   LIG    1        3.597  -0.217   0.963  0.00  0.00    +0.008 A 
ATOM     24  C   LIG    1        2.202  -0.158   0.911  0.00  0.00    -0.025 A 
ATOM     25  C   LIG    1        1.421  -0.305   2.213  0.00  0.00    +0.046 C 
ENDBRANCH  10  17
BRANCH   1  27
ATOM     26  C   LIG    1        1.470   9.949   0.604  0.00  0.00    +0.277 C 
ATOM     27  O   LIG    1        2.099   8.715   0.932  0.00  0.00    -0.491 OA
ENDBRANCH   1  27
BRANCH  16  28
ATOM     28  O   LIG    1        3.359   6.466   1.592  0.00  0.00    -0.491 OA
ATOM     29  C   LIG    1        4.081   5.298   1.969  0.00  0.00    +0.277 C 
ENDBRANCH  16  28
BRANCH  11  30
ATOM     30  C   LIG    1       -2.672   0.127  -0.402  0.00  0.00    +0.147 C 
BRANCH  30  31
ATOM     31  C   LIG    1       -2.884  -0.586   0.952  0.00  0.00    +0.127 C 
BRANCH  31  32
ATOM     32  N   LIG    1       -3.677  -1.808   0.845  0.00  0.00    -0.298 N 
ATOM     33  H   LIG    1       -3.171  -2.679   0.910  0.00  0.00    +0.150 HD
ATOM     34  C   LIG    1       -5.009  -1.847   0.680  0.00  0.00    +0.297 C 
ATOM     35  O   LIG    1       -5.736  -0.859   0.593  0.00  0.00    -0.253 OA
ATOM     36  N   LIG    1       -5.477  -3.094   0.621  0.00  0.00    -0.313 N 
ATOM     37  H   LIG    1       -6.467  -3.254   0.507  0.00  0.00    +0.146 HD
ATOM     38  H   LIG    1       -4.850  -3.881   0.686  0.00  0.00    +0.146 HD
ENDBRANCH  31  32
ENDBRANCH  30  31
ENDBRANCH  11  30
TORSDOF 6
