REMARK  Name = DB16893
REMARK                            x       y       z     vdW  Elec       q    Type
REMARK                         _______ _______ _______ _____ _____    ______ ____
ROOT
ATOM      1  C   LIG    1        1.640   0.271  -0.038  0.00  0.00    +0.227 C 
ENDROOT
BRANCH   1   2
ATOM      2  C   LIG    1        0.111   0.185   0.048  0.00  0.00    +0.022 C 
BRANCH   2   3
ATOM      3  C   LIG    1       -0.556   1.570   0.084  0.00  0.00    -0.076 C 
BRANCH   3   9
ATOM      4  C   LIG    1       -5.625   2.837   2.433  0.00  0.00    +0.000 C 
ATOM      5  C   LIG    1       -4.881   3.591   1.331  0.00  0.00    +0.002 C 
ATOM      6  C   LIG    1       -4.250   2.492   0.455  0.00  0.00    -0.026 C 
ATOM      7  C   LIG    1       -4.168   1.231   1.331  0.00  0.00    -0.026 C 
ATOM      8  C   LIG    1       -2.692   0.806   1.349  0.00  0.00    -0.075 C 
ATOM      9  N   LIG    1       -2.093   1.434   0.078  0.00  0.00    +0.380 N 
ATOM     10  H   LIG    1       -2.349   0.868  -0.720  0.00  0.00    -0.082 HD
ATOM     11  C   LIG    1       -2.820   2.786  -0.023  0.00  0.00    -0.075 C 
ATOM     12  C   LIG    1       -4.748   1.616   2.705  0.00  0.00    +0.002 C 
ENDBRANCH   3   9
ENDBRANCH   2   3
ENDBRANCH   1   2
BRANCH   1  13
ATOM     13  O   LIG    1        2.168  -1.053  -0.036  0.00  0.00    -0.492 OA
BRANCH  13  14
ATOM     14  C   LIG    1        3.536  -1.239  -0.070  0.00  0.00    +0.121 A 
ATOM     15  C   LIG    1        4.476  -0.200  -0.131  0.00  0.00    +0.046 A 
ATOM     16  C   LIG    1        5.839  -0.485  -0.160  0.00  0.00    +0.016 A 
ATOM     17  C   LIG    1        6.293  -1.813  -0.129  0.00  0.00    +0.037 A 
ATOM     18  C   LIG    1        5.347  -2.845  -0.070  0.00  0.00    +0.016 A 
ATOM     19  C   LIG    1        3.985  -2.558  -0.042  0.00  0.00    +0.046 A 
BRANCH  17  20
ATOM     20  C   LIG    1        7.771  -2.151  -0.154  0.00  0.00    +0.242 C 
ATOM     21  O   LIG    1        8.165  -3.315  -0.091  0.00  0.00    -0.270 OA
ATOM     22  N   LIG    1        8.637  -1.137  -0.249  0.00  0.00    -0.325 N 
ATOM     23  H   LIG    1        9.630  -1.321  -0.267  0.00  0.00    +0.145 HD
ATOM     24  H   LIG    1        8.307  -0.185  -0.304  0.00  0.00    +0.145 HD
ENDBRANCH  17  20
ENDBRANCH  13  14
ENDBRANCH   1  13
TORSDOF 6
