REMARK  Name = DB16080
REMARK                            x       y       z     vdW  Elec       q    Type
REMARK                         _______ _______ _______ _____ _____    ______ ____
ROOT
ATOM      1  C   LIG    1       -1.843  -1.139   3.467  0.00  0.00    +0.045 C 
ATOM      2  C   LIG    1       -1.327  -0.495   2.179  0.00  0.00    -0.032 C 
ATOM      3  C   LIG    1       -1.441   0.979   2.071  0.00  0.00    +0.020 A 
ATOM      4  C   LIG    1       -1.806   1.807   3.144  0.00  0.00    +0.015 A 
ATOM      5  C   LIG    1       -1.865   3.192   2.986  0.00  0.00    +0.046 A 
ATOM      6  C   LIG    1       -1.562   3.771   1.754  0.00  0.00    +0.120 A 
ATOM      7  C   LIG    1       -1.200   2.964   0.676  0.00  0.00    +0.091 A 
ATOM      8  C   LIG    1       -1.134   1.581   0.843  0.00  0.00    +0.133 A 
ATOM      9  O   LIG    1       -0.810   0.830  -0.269  0.00  0.00    -0.479 OA
ATOM     10  C   LIG    1       -0.159  -0.436  -0.041  0.00  0.00    +0.235 C 
ATOM     11  C   LIG    1       -0.699  -1.183   1.192  0.00  0.00    +0.008 C 
ENDROOT
BRANCH  10  12
ATOM     12  C   LIG    1        1.366  -0.304  -0.069  0.00  0.00    -0.003 A 
ATOM     13  C   LIG    1        2.107  -0.959  -1.056  0.00  0.00    +0.011 A 
ATOM     14  C   LIG    1        3.495  -0.855  -1.075  0.00  0.00    +0.046 A 
ATOM     15  C   LIG    1        4.160  -0.090  -0.105  0.00  0.00    +0.120 A 
ATOM     16  C   LIG    1        3.414   0.570   0.872  0.00  0.00    +0.046 A 
ATOM     17  C   LIG    1        2.026   0.464   0.894  0.00  0.00    +0.011 A 
BRANCH  15  18
ATOM     18  O   LIG    1        5.531   0.066  -0.039  0.00  0.00    -0.494 OA
BRANCH  18  19
ATOM     19  C   LIG    1        6.365  -0.657  -0.943  0.00  0.00    +0.210 C 
BRANCH  19  20
ATOM     20  C   LIG    1        7.848  -0.442  -0.582  0.00  0.00    -0.037 C 
BRANCH  20  21
ATOM     21  N   LIG    1        8.116  -0.623   0.935  0.00  0.00    +0.382 N 
ATOM     22  H   LIG    1        7.492  -0.008   1.439  0.00  0.00    -0.082 HD
ATOM     23  C   LIG    1        7.840  -2.073   1.403  0.00  0.00    -0.079 C 
ATOM     24  C   LIG    1        8.079  -2.167   2.921  0.00  0.00    -0.019 C 
ATOM     25  C   LIG    1        9.490  -1.702   3.317  0.00  0.00    -0.004 C 
ATOM     26  C   LIG    1        9.792  -0.291   2.782  0.00  0.00    -0.019 C 
ATOM     27  C   LIG    1        9.565  -0.189   1.263  0.00  0.00    -0.079 C 
ENDBRANCH  20  21
ENDBRANCH  19  20
ENDBRANCH  18  19
ENDBRANCH  15  18
ENDBRANCH  10  12
BRANCH  11  28
ATOM     28  C   LIG    1       -0.399  -2.629   1.282  0.00  0.00    -0.018 A 
ATOM     29  C   LIG    1       -0.973  -3.520   0.369  0.00  0.00    +0.012 A 
ATOM     30  C   LIG    1       -0.663  -4.876   0.425  0.00  0.00    +0.046 A 
ATOM     31  C   LIG    1        0.228  -5.342   1.391  0.00  0.00    +0.117 A 
ATOM     32  C   LIG    1        0.813  -4.461   2.297  0.00  0.00    +0.046 A 
ATOM     33  C   LIG    1        0.503  -3.105   2.239  0.00  0.00    +0.012 A 
BRANCH  31  34
ATOM     34  O   LIG    1        0.534  -6.676   1.447  0.00  0.00    -0.507 OA
ATOM     35  H   LIG    1        0.076  -7.193   0.780  0.00  0.00    +0.292 HD
ENDBRANCH  31  34
ENDBRANCH  11  28
BRANCH   6  36
ATOM     36  O   LIG    1       -1.623   5.131   1.602  0.00  0.00    -0.507 OA
ATOM     37  H   LIG    1       -1.396   5.418   0.715  0.00  0.00    +0.292 HD
ENDBRANCH   6  36
TORSDOF 8
