REMARK  Name = DB16219
REMARK                            x       y       z     vdW  Elec       q    Type
REMARK                         _______ _______ _______ _____ _____    ______ ____
ROOT
ATOM      1  C   LIG    1       -1.951  -3.781  -1.882  0.00  0.00    +0.031 C 
ATOM      2  C   LIG    1       -2.020  -3.499  -0.365  0.00  0.00    +0.085 C 
ATOM      3  N   LIG    1       -2.803  -2.269  -0.130  0.00  0.00    -0.343 N 
ATOM      4  C   LIG    1       -4.184  -2.340  -0.155  0.00  0.00    +0.105 A 
ATOM      5  C   LIG    1       -5.051  -1.296  -0.025  0.00  0.00    +0.122 A 
ATOM      6  C   LIG    1       -4.455   0.063   0.173  0.00  0.00    +0.203 A 
ATOM      7  O   LIG    1       -5.118   1.093   0.316  0.00  0.00    -0.286 OA
ATOM      8  C   LIG    1       -2.940   0.119   0.192  0.00  0.00    +0.049 A 
ATOM      9  C   LIG    1       -2.315   1.355   0.379  0.00  0.00    +0.054 A 
ATOM     10  C   LIG    1       -0.933   1.472   0.405  0.00  0.00    +0.145 A 
ATOM     11  F   LIG    1       -0.408   2.712   0.552  0.00  0.00    -0.204 F 
ATOM     12  C   LIG    1       -0.115   0.340   0.257  0.00  0.00    +0.071 A 
ATOM     13  C   LIG    1       -0.713  -0.923   0.045  0.00  0.00    +0.001 A 
ATOM     14  C   LIG    1        0.134  -2.184  -0.148  0.00  0.00    +0.041 C 
ATOM     15  C   LIG    1       -2.127  -1.024   0.024  0.00  0.00    +0.058 A 
ATOM     16  C   LIG    1       -0.635  -3.425   0.300  0.00  0.00    +0.029 C 
ENDROOT
BRANCH  12  17
ATOM     17  N   LIG    1        1.275   0.456   0.212  0.00  0.00    -0.327 N 
ATOM     18  C   LIG    1        2.009   1.352   1.121  0.00  0.00    +0.107 C 
ATOM     19  C   LIG    1        3.486   0.938   1.280  0.00  0.00    +0.050 C 
ATOM     20  C   LIG    1        4.220   0.839  -0.069  0.00  0.00    +0.118 C 
ATOM     21  C   LIG    1        3.379   0.057  -1.091  0.00  0.00    +0.050 C 
ATOM     22  C   LIG    1        1.902   0.503  -1.119  0.00  0.00    +0.107 C 
BRANCH  20  23
ATOM     23  O   LIG    1        5.497   0.257   0.089  0.00  0.00    -0.392 OA
ATOM     24  H   LIG    1        6.159   0.891  -0.195  0.00  0.00    +0.210 HD
ENDBRANCH  20  23
ENDBRANCH  12  17
BRANCH   5  25
ATOM     25  C   LIG    1       -6.614  -1.632  -0.100  0.00  0.00    +0.342 C 
ATOM     26  O   LIG    1       -7.389  -0.655   0.003  0.00  0.00    -0.245 OA
BRANCH  25  27
ATOM     27  O   LIG    1       -6.948  -2.832  -0.255  0.00  0.00    -0.477 OA
ATOM     28  H   LIG    1       -7.854  -3.064  -0.303  0.00  0.00    +0.295 HD
ENDBRANCH  25  27
ENDBRANCH   5  25
TORSDOF 4
