REMARK  Name = DB16246
REMARK                            x       y       z     vdW  Elec       q    Type
REMARK                         _______ _______ _______ _____ _____    ______ ____
ROOT
ATOM      1  C   LIG    1       -0.371   1.408  -0.552  0.00  0.00    +0.072 C 
ATOM      2  C   LIG    1       -1.030   1.586   0.869  0.00  0.00    +0.061 C 
ATOM      3  C   LIG    1       -0.406   0.759   2.014  0.00  0.00    +0.016 C 
ATOM      4  C   LIG    1       -1.220   3.061   1.294  0.00  0.00    +0.139 C 
ATOM      5  O   LIG    1       -2.361   3.502   1.427  0.00  0.00    -0.297 OA
ATOM      6  C   LIG    1        0.023   3.967   1.504  0.00  0.00    +0.055 C 
ATOM      7  C   LIG    1        0.652   3.807   2.907  0.00  0.00    +0.015 C 
ATOM      8  C   LIG    1       -0.220   5.455   1.088  0.00  0.00    +0.048 C 
ATOM      9  C   LIG    1       -0.846   6.490   2.098  0.00  0.00    +0.094 C 
ATOM     10  C   LIG    1        0.314   7.228   2.833  0.00  0.00    +0.044 C 
ATOM     11  C   LIG    1       -1.741   7.516   1.310  0.00  0.00    +0.163 C 
ATOM     12  C   LIG    1       -3.095   6.901   0.782  0.00  0.00    +0.085 C 
ATOM     13  C   LIG    1       -4.370   7.646   1.246  0.00  0.00    +0.018 C 
ATOM     14  C   LIG    1       -3.148   6.697  -0.746  0.00  0.00    +0.152 C 
ATOM     15  O   LIG    1       -2.517   7.418  -1.522  0.00  0.00    -0.296 OA
ATOM     16  C   LIG    1       -4.029   5.540  -1.264  0.00  0.00    +0.161 C 
ATOM     17  C   LIG    1       -5.312   6.091  -1.931  0.00  0.00    +0.027 C 
ATOM     18  C   LIG    1       -3.263   4.542  -2.166  0.00  0.00    +0.318 C 
ATOM     19  O   LIG    1       -3.732   4.154  -3.239  0.00  0.00    -0.250 OA
ATOM     20  O   LIG    1       -2.070   4.132  -1.642  0.00  0.00    -0.457 OA
ATOM     21  C   LIG    1       -1.205   3.234  -2.347  0.00  0.00    +0.220 C 
ATOM     22  C   LIG    1       -1.266   1.769  -1.786  0.00  0.00    +0.152 C 
ATOM     23  C   LIG    1       -2.728   1.248  -1.674  0.00  0.00    +0.060 C 
ATOM     24  O   LIG    1       -0.702   0.980  -2.836  0.00  0.00    -0.454 OA
ATOM     25  C   LIG    1        0.045  -0.047  -2.397  0.00  0.00    +0.323 C 
ATOM     26  O   LIG    1        0.580  -0.828  -3.184  0.00  0.00    -0.250 OA
ATOM     27  C   LIG    1        0.116  -0.026  -0.868  0.00  0.00    +0.224 C 
ENDROOT
BRANCH   9  28
ATOM     28  O   LIG    1       -1.649   5.752   3.035  0.00  0.00    -0.374 OA
ATOM     29  C   LIG    1       -2.168   6.396   4.196  0.00  0.00    +0.194 C 
ENDBRANCH   9  28
BRANCH  21  30
ATOM     30  C   LIG    1        0.204   3.871  -2.434  0.00  0.00    +0.045 C 
ATOM     31  C   LIG    1        0.238   5.174  -3.247  0.00  0.00    +0.007 C 
ENDBRANCH  21  30
BRANCH  27  32
ATOM     32  C   LIG    1        1.500  -0.449  -0.331  0.00  0.00    +0.346 C 
ATOM     33  N   LIG    1        1.513  -1.486   0.406  0.00  0.00    +0.150 NA
BRANCH  32  34
ATOM     34  N   LIG    1        2.557   0.363  -0.712  0.00  0.00    -0.246 N 
ATOM     35  H   LIG    1        2.416   1.123  -1.361  0.00  0.00    +0.288 HD
ATOM     36  H   LIG    1        3.495   0.154  -0.402  0.00  0.00    +0.288 HD
ENDBRANCH  32  34
BRANCH  33  37
ATOM     37  O   LIG    1        2.814  -1.765   0.875  0.00  0.00    -0.286 OA
BRANCH  37  38
ATOM     38  C   LIG    1        2.787  -2.849   1.800  0.00  0.00    +0.286 C 
ATOM     39  C   LIG    1        2.685  -4.192   1.046  0.00  0.00    +0.065 C 
BRANCH  38  40
ATOM     40  C   LIG    1        4.035  -2.753   2.660  0.00  0.00    +0.148 A 
ATOM     41  S   LIG    1        4.050  -2.060   4.259  0.00  0.00    -0.045 S 
ATOM     42  C   LIG    1        5.769  -2.357   4.316  0.00  0.00    +0.150 A 
ATOM     43  N   LIG    1        6.222  -2.916   3.219  0.00  0.00    -0.140 NA
ATOM     44  N   LIG    1        5.230  -3.136   2.271  0.00  0.00    -0.142 NA
BRANCH  42  45
ATOM     45  C   LIG    1        6.620  -1.999   5.501  0.00  0.00    +0.098 A 
ATOM     46  N   LIG    1        5.986  -1.409   6.554  0.00  0.00    -0.253 NA
ATOM     47  C   LIG    1        6.720  -1.068   7.643  0.00  0.00    +0.111 A 
ATOM     48  C   LIG    1        8.094  -1.297   7.732  0.00  0.00    +0.020 A 
ATOM     49  C   LIG    1        8.737  -1.902   6.652  0.00  0.00    +0.004 A 
ATOM     50  C   LIG    1        7.998  -2.259   5.522  0.00  0.00    +0.030 A 
ENDBRANCH  42  45
ENDBRANCH  38  40
ENDBRANCH  37  38
ENDBRANCH  33  37
ENDBRANCH  27  32
BRANCH  11  51
ATOM     51  O   LIG    1       -1.982   8.679   2.114  0.00  0.00    -0.342 OA
BRANCH  51  52
ATOM     52  C   LIG    1       -1.884   9.914   1.468  0.00  0.00    +0.278 C 
ATOM     53  C   LIG    1       -2.407  10.985   2.440  0.00  0.00    +0.157 C 
ATOM     54  C   LIG    1       -2.251  12.383   1.784  0.00  0.00    -0.033 C 
ATOM     55  C   LIG    1       -0.831  12.612   1.216  0.00  0.00    +0.019 C 
ATOM     56  C   LIG    1       -0.336  11.384   0.423  0.00  0.00    +0.117 C 
ATOM     57  C   LIG    1        1.145  11.496   0.036  0.00  0.00    +0.038 C 
ATOM     58  O   LIG    1       -0.536  10.185   1.177  0.00  0.00    -0.346 OA
BRANCH  54  59
ATOM     59  N   LIG    1       -2.667  13.513   2.772  0.00  0.00    +0.380 N 
ATOM     60  H   LIG    1       -3.595  13.259   3.083  0.00  0.00    -0.082 HD
ATOM     61  C   LIG    1       -1.818  13.656   4.055  0.00  0.00    -0.096 C 
ATOM     62  C   LIG    1       -2.828  14.880   2.074  0.00  0.00    -0.096 C 
ENDBRANCH  54  59
BRANCH  53  63
ATOM     63  O   LIG    1       -3.752  10.730   2.810  0.00  0.00    -0.388 OA
ATOM     64  H   LIG    1       -4.322  10.939   2.066  0.00  0.00    +0.210 HD
ENDBRANCH  53  63
ENDBRANCH  51  52
ENDBRANCH  11  51
TORSDOF 12
