REMARK  Name = DB16064
REMARK                            x       y       z     vdW  Elec       q    Type
REMARK                         _______ _______ _______ _____ _____    ______ ____
ROOT
ATOM      1  C   LIG    1        0.721   1.551  -0.401  0.00  0.00    +0.123 A 
ATOM      2  N   LIG    1        0.403   2.467  -1.353  0.00  0.00    -0.240 NA
ATOM      3  C   LIG    1        1.171   3.580  -1.462  0.00  0.00    +0.116 A 
ATOM      4  C   LIG    1        2.264   3.829  -0.634  0.00  0.00    +0.066 A 
ATOM      5  C   LIG    1        2.581   2.898   0.368  0.00  0.00    +0.133 A 
ATOM      6  C   LIG    1        1.804   1.739   0.463  0.00  0.00    +0.089 A 
ENDROOT
BRANCH   1   7
ATOM      7  N   LIG    1       -0.035   0.376  -0.250  0.00  0.00    -0.321 N 
ATOM      8  H   LIG    1        0.282  -0.194   0.520  0.00  0.00    +0.148 HD
BRANCH   7  14
ATOM      9  C   LIG    1       -2.708  -2.040  -1.071  0.00  0.00    +0.074 C 
ATOM     10  N   LIG    1       -3.260  -1.438  -2.149  0.00  0.00    -0.302 NA
ATOM     11  H   LIG    1       -4.046  -1.891  -2.593  0.00  0.00    +0.123 HD
ATOM     12  C   LIG    1       -2.827  -0.270  -2.658  0.00  0.00    +0.077 C 
ATOM     13  C   LIG    1       -1.747   0.381  -2.059  0.00  0.00    +0.040 C 
ATOM     14  C   LIG    1       -1.129  -0.188  -0.932  0.00  0.00    +0.065 C 
ATOM     15  C   LIG    1       -1.624  -1.405  -0.446  0.00  0.00    +0.047 C 
BRANCH   9  17
ATOM     16  C   LIG    1       -3.951  -3.174   0.814  0.00  0.00    +0.043 C 
ATOM     17  C   LIG    1       -3.284  -3.374  -0.563  0.00  0.00    +0.081 C 
ATOM     18  C   LIG    1       -2.197  -4.469  -0.486  0.00  0.00    +0.043 C 
BRANCH  17  19
ATOM     19  O   LIG    1       -4.303  -3.897  -1.403  0.00  0.00    -0.387 OA
ATOM     20  H   LIG    1       -3.898  -4.219  -2.212  0.00  0.00    +0.210 HD
ENDBRANCH  17  19
ENDBRANCH   9  17
ENDBRANCH   7  14
ENDBRANCH   1   7
BRANCH   5  21
ATOM     21  O   LIG    1        3.656   3.001   1.229  0.00  0.00    -0.452 OA
BRANCH  21  22
ATOM     22  C   LIG    1        4.248   4.189   1.586  0.00  0.00    +0.169 A 
ATOM     23  C   LIG    1        5.501   4.307   2.211  0.00  0.00    +0.108 A 
ATOM     24  N   LIG    1        5.801   5.566   2.455  0.00  0.00    -0.172 NA
ATOM     25  N   LIG    1        4.754   6.285   2.020  0.00  0.00    -0.264 N 
ATOM     26  C   LIG    1        3.774   5.491   1.489  0.00  0.00    +0.155 A 
BRANCH  23  27
ATOM     27  C   LIG    1        6.472   3.204   2.595  0.00  0.00    +0.048 C 
ATOM     28  C   LIG    1        7.778   3.168   1.763  0.00  0.00    +0.038 C 
ATOM     29  C   LIG    1        8.801   2.146   2.297  0.00  0.00    +0.160 C 
ATOM     30  O   LIG    1        8.989   2.315   3.697  0.00  0.00    -0.380 OA
ATOM     31  C   LIG    1        7.817   2.023   4.448  0.00  0.00    +0.160 C 
ATOM     32  C   LIG    1        6.698   3.031   4.118  0.00  0.00    +0.038 C 
ENDBRANCH  23  27
BRANCH  25  33
ATOM     33  C   LIG    1        4.725   7.743   2.146  0.00  0.00    +0.107 C 
ATOM     34  C   LIG    1        5.354   8.406   3.357  0.00  0.00    +0.029 C 
ATOM     35  C   LIG    1        6.011   8.537   2.005  0.00  0.00    +0.029 C 
ENDBRANCH  25  33
ENDBRANCH  21  22
ENDBRANCH   5  21
TORSDOF 8
