REMARK  Name = DB16011
REMARK                            x       y       z     vdW  Elec       q    Type
REMARK                         _______ _______ _______ _____ _____    ______ ____
ROOT
ATOM      1  C   LIG    1        1.532  -0.026  -0.420  0.00  0.00    +0.344 C 
ATOM      2  O   LIG    1        2.161  -0.878  -1.055  0.00  0.00    -0.247 OA
ENDROOT
BRANCH   1   3
ATOM      3  O   LIG    1        2.103   0.988   0.289  0.00  0.00    -0.459 OA
BRANCH   3   4
ATOM      4  C   LIG    1        3.514   1.215   0.289  0.00  0.00    +0.179 C 
ATOM      5  C   LIG    1        3.907   2.124   1.479  0.00  0.00    +0.013 C 
ATOM      6  C   LIG    1        5.455   2.091   1.612  0.00  0.00    -0.072 C 
ATOM      7  N   LIG    1        6.200   2.422   0.291  0.00  0.00    +0.378 N 
ATOM      8  H   LIG    1        7.120   2.013   0.387  0.00  0.00    -0.082 HD
ATOM      9  C   LIG    1        6.495   3.930   0.135  0.00  0.00    -0.096 C 
ATOM     10  C   LIG    1        5.593   1.796  -0.992  0.00  0.00    -0.072 C 
ATOM     11  C   LIG    1        3.355   3.573   1.320  0.00  0.00    +0.005 C 
ATOM     12  C   LIG    1        2.755   3.923  -0.063  0.00  0.00    +0.001 C 
ATOM     13  C   LIG    1        3.489   3.277  -1.263  0.00  0.00    +0.005 C 
ATOM     14  C   LIG    1        4.040   1.839  -1.033  0.00  0.00    +0.013 C 
ENDBRANCH   3   4
ENDBRANCH   1   3
BRANCH   1  15
ATOM     15  C   LIG    1       -0.023  -0.066  -0.305  0.00  0.00    +0.190 C 
BRANCH  15  16
ATOM     16  C   LIG    1       -0.374  -0.672   1.082  0.00  0.00    -0.005 A 
ATOM     17  C   LIG    1        0.133  -1.928   1.461  0.00  0.00    +0.007 A 
ATOM     18  C   LIG    1       -0.194  -2.487   2.693  0.00  0.00    +0.000 A 
ATOM     19  C   LIG    1       -1.042  -1.802   3.558  0.00  0.00    +0.000 A 
ATOM     20  C   LIG    1       -1.569  -0.566   3.197  0.00  0.00    +0.000 A 
ATOM     21  C   LIG    1       -1.240  -0.007   1.965  0.00  0.00    +0.007 A 
ENDBRANCH  15  16
BRANCH  15  22
ATOM     22  C   LIG    1       -0.693  -0.910  -1.453  0.00  0.00    +0.036 C 
ATOM     23  C   LIG    1       -2.243  -0.956  -1.403  0.00  0.00    +0.007 C 
ATOM     24  C   LIG    1       -2.736  -0.251  -2.668  0.00  0.00    +0.000 C 
ATOM     25  C   LIG    1       -1.656  -0.554  -3.701  0.00  0.00    +0.000 C 
ATOM     26  C   LIG    1       -0.352  -0.473  -2.905  0.00  0.00    +0.007 C 
ENDBRANCH  15  22
BRANCH  15  27
ATOM     27  O   LIG    1       -0.476   1.280  -0.451  0.00  0.00    -0.373 OA
ATOM     28  H   LIG    1        0.064   1.843   0.110  0.00  0.00    +0.211 HD
ENDBRANCH  15  27
ENDBRANCH   1  15
TORSDOF 6
