REMARK  Name = DB16114
REMARK                            x       y       z     vdW  Elec       q    Type
REMARK                         _______ _______ _______ _____ _____    ______ ____
ROOT
ATOM      1  C   LIG    1       -4.196  -0.228   0.167  0.00  0.00    +0.155 C 
ATOM      2  N   LIG    1       -2.741  -0.125  -0.075  0.00  0.00    -0.280 N 
ATOM      3  C   LIG    1       -1.951  -1.260  -0.224  0.00  0.00    +0.221 A 
ATOM      4  N   LIG    1       -0.701  -1.148  -0.524  0.00  0.00    -0.206 NA
ATOM      5  C   LIG    1       -0.107   0.076  -0.678  0.00  0.00    +0.176 A 
ATOM      6  C   LIG    1       -0.825   1.246  -0.511  0.00  0.00    +0.213 A 
ATOM      7  C   LIG    1       -2.264   1.171  -0.176  0.00  0.00    +0.298 A 
ATOM      8  O   LIG    1       -2.996   2.160  -0.005  0.00  0.00    -0.264 OA
ENDROOT
BRANCH   3   9
ATOM      9  N   LIG    1       -2.510  -2.584  -0.016  0.00  0.00    -0.176 N 
ATOM     10  S   LIG    1       -2.761  -3.131   1.657  0.00  0.00    +0.048 S 
ATOM     11  O   LIG    1       -3.292  -2.043   2.486  0.00  0.00    -0.155 OA
ATOM     12  O   LIG    1       -1.570  -3.848   2.127  0.00  0.00    -0.155 OA
ATOM     13  C   LIG    1       -4.142  -4.371   1.288  0.00  0.00    +0.189 C 
ATOM     14  C   LIG    1       -3.658  -5.402   0.258  0.00  0.00    +0.026 C 
ATOM     15  C   LIG    1       -3.244  -4.761  -1.078  0.00  0.00    +0.022 C 
ATOM     16  C   LIG    1       -2.143  -3.692  -0.942  0.00  0.00    +0.134 C 
ENDBRANCH   3   9
BRANCH   5  17
ATOM     17  C   LIG    1        1.318  -0.026  -0.997  0.00  0.00    +0.267 C 
ATOM     18  N   LIG    1        2.133   0.649  -0.162  0.00  0.00    -0.306 N 
ATOM     19  H   LIG    1        1.710   1.194   0.575  0.00  0.00    +0.149 HD
ATOM     20  O   LIG    1        1.738  -0.715  -1.931  0.00  0.00    -0.268 OA
BRANCH  18  21
ATOM     21  C   LIG    1        3.589   0.733  -0.279  0.00  0.00    +0.140 C 
BRANCH  21  22
ATOM     22  C   LIG    1        4.100   1.474  -1.514  0.00  0.00    -0.030 A 
ATOM     23  C   LIG    1        3.544   2.705  -1.881  0.00  0.00    +0.008 A 
ATOM     24  C   LIG    1        4.007   3.369  -3.014  0.00  0.00    +0.038 A 
ATOM     25  C   LIG    1        5.023   2.802  -3.780  0.00  0.00    +0.123 A 
ATOM     26  F   LIG    1        5.473   3.447  -4.880  0.00  0.00    -0.205 F 
ATOM     27  C   LIG    1        5.579   1.575  -3.423  0.00  0.00    +0.038 A 
ATOM     28  C   LIG    1        5.118   0.911  -2.289  0.00  0.00    +0.008 A 
ENDBRANCH  21  22
ENDBRANCH  18  21
ENDBRANCH   5  17
BRANCH   6  29
ATOM     29  O   LIG    1       -0.324   2.434  -0.668  0.00  0.00    -0.501 OA
ATOM     30  H   LIG    1       -0.862   3.190  -0.541  0.00  0.00    +0.292 HD
ENDBRANCH   6  29
TORSDOF 5
