REMARK  Name = DB16652
REMARK                            x       y       z     vdW  Elec       q    Type
REMARK                         _______ _______ _______ _____ _____    ______ ____
ROOT
ATOM      1  C   LIG    1        1.530   0.049  -0.011  0.00  0.00    +0.090 A 
ATOM      2  C   LIG    1        2.246   1.255  -0.048  0.00  0.00    +0.033 A 
ATOM      3  C   LIG    1        3.639   1.224  -0.064  0.00  0.00    +0.050 A 
ATOM      4  C   LIG    1        4.306  -0.001  -0.048  0.00  0.00    +0.144 A 
ATOM      5  C   LIG    1        3.545  -1.184  -0.020  0.00  0.00    +0.131 A 
ATOM      6  N   LIG    1        2.183  -1.147   0.004  0.00  0.00    -0.240 NA
ENDROOT
BRANCH   1   9
ATOM      7  C   LIG    1       -1.988   1.156   0.038  0.00  0.00    +0.213 A 
ATOM      8  N   LIG    1       -0.632   1.185   0.017  0.00  0.00    -0.213 NA
ATOM      9  C   LIG    1        0.029  -0.011   0.015  0.00  0.00    +0.094 A 
ATOM     10  C   LIG    1       -0.691  -1.220   0.036  0.00  0.00    +0.050 A 
ATOM     11  C   LIG    1       -2.085  -1.145   0.057  0.00  0.00    +0.116 A 
ATOM     12  N   LIG    1       -2.753   0.037   0.058  0.00  0.00    -0.223 NA
BRANCH   7  13
ATOM     13  N   LIG    1       -2.650   2.380   0.040  0.00  0.00    -0.327 N 
ATOM     14  H   LIG    1       -3.660   2.396   0.051  0.00  0.00    +0.145 HD
ATOM     15  H   LIG    1       -2.112   3.234   0.022  0.00  0.00    +0.145 HD
ENDBRANCH   7  13
ENDBRANCH   1   9
BRANCH   5  16
ATOM     16  C   LIG    1        4.133  -2.557  -0.012  0.00  0.00    +0.098 A 
ATOM     17  C   LIG    1        3.643  -3.575   0.822  0.00  0.00    +0.050 A 
ATOM     18  C   LIG    1        4.260  -4.825   0.740  0.00  0.00    +0.116 A 
ATOM     19  N   LIG    1        5.292  -5.074  -0.107  0.00  0.00    -0.223 NA
ATOM     20  C   LIG    1        5.699  -4.036  -0.880  0.00  0.00    +0.213 A 
ATOM     21  N   LIG    1        5.165  -2.789  -0.874  0.00  0.00    -0.213 NA
BRANCH  20  22
ATOM     22  N   LIG    1        6.755  -4.271  -1.756  0.00  0.00    -0.327 N 
ATOM     23  H   LIG    1        7.084  -3.521  -2.345  0.00  0.00    +0.145 HD
ATOM     24  H   LIG    1        7.174  -5.189  -1.791  0.00  0.00    +0.145 HD
ENDBRANCH  20  22
ENDBRANCH   5  16
BRANCH   4  25
ATOM     25  O   LIG    1        5.678  -0.009  -0.038  0.00  0.00    -0.505 OA
ATOM     26  H   LIG    1        6.058   0.871  -0.064  0.00  0.00    +0.292 HD
ENDBRANCH   4  25
TORSDOF 5
