REMARK  Name = DB16449
REMARK                            x       y       z     vdW  Elec       q    Type
REMARK                         _______ _______ _______ _____ _____    ______ ____
ROOT
ATOM      1  N   LIG    1       -5.512   3.282  -0.557  0.00  0.00    -0.354 N 
ATOM      2  H   LIG    1       -4.710   2.691  -0.407  0.00  0.00    +0.166 HD
ATOM      3  C   LIG    1       -6.783   2.867  -0.702  0.00  0.00    +0.045 A 
ATOM      4  C   LIG    1       -7.197   1.532  -0.661  0.00  0.00    +0.052 C 
ATOM      5  C   LIG    1       -6.423   0.381  -0.473  0.00  0.00    +0.049 A 
ATOM      6  C   LIG    1       -6.899  -0.924  -0.440  0.00  0.00    +0.003 A 
ATOM      7  C   LIG    1       -5.797  -1.735  -0.232  0.00  0.00    -0.018 A 
ATOM      8  C   LIG    1       -5.793  -3.251  -0.076  0.00  0.00    +0.046 C 
ATOM      9  C   LIG    1       -4.690  -0.904  -0.172  0.00  0.00    +0.045 A 
ATOM     10  C   LIG    1       -3.366  -1.318   0.006  0.00  0.00    +0.051 C 
ATOM     11  C   LIG    1       -2.217  -0.527   0.090  0.00  0.00    +0.045 A 
ATOM     12  C   LIG    1       -0.926  -0.990   0.281  0.00  0.00    -0.022 A 
ATOM     13  C   LIG    1       -0.104   0.119   0.291  0.00  0.00    -0.019 A 
ATOM     14  C   LIG    1       -0.923   1.224   0.130  0.00  0.00    +0.045 A 
ATOM     15  C   LIG    1       -0.508   2.557   0.105  0.00  0.00    +0.051 C 
ATOM     16  C   LIG    1       -1.293   3.702  -0.051  0.00  0.00    +0.045 A 
ATOM     17  C   LIG    1       -0.820   5.004  -0.092  0.00  0.00    -0.019 A 
ATOM     18  C   LIG    1       -1.924   5.820  -0.247  0.00  0.00    -0.022 A 
ATOM     19  C   LIG    1       -1.952   7.339  -0.344  0.00  0.00    +0.046 C 
ATOM     20  C   LIG    1       -3.027   4.987  -0.325  0.00  0.00    +0.045 A 
ATOM     21  C   LIG    1       -4.346   5.409  -0.518  0.00  0.00    +0.052 C 
ATOM     22  N   LIG    1       -2.632   3.707  -0.194  0.00  0.00    -0.355 N 
ATOM     23  H   LIG    1       -3.229   2.896  -0.209  0.00  0.00    +0.166 HD
ATOM     24  C   LIG    1       -0.491  -2.438   0.449  0.00  0.00    +0.046 C 
ATOM     25  N   LIG    1       -2.198   0.815   0.001  0.00  0.00    -0.355 N 
ATOM     26  H   LIG    1       -2.999   1.411  -0.133  0.00  0.00    +0.166 HD
ATOM     27  N   LIG    1       -5.085   0.377  -0.308  0.00  0.00    -0.354 N 
ATOM     28  H   LIG    1       -4.487   1.187  -0.300  0.00  0.00    +0.166 HD
ATOM     29  C   LIG    1       -7.602   3.967  -0.897  0.00  0.00    -0.018 A 
ATOM     30  C   LIG    1       -9.105   3.936  -1.146  0.00  0.00    +0.046 C 
ATOM     31  C   LIG    1       -6.793   5.089  -0.836  0.00  0.00    +0.003 A 
ATOM     32  C   LIG    1       -5.500   4.626  -0.635  0.00  0.00    +0.049 A 
ENDROOT
BRANCH   6  33
ATOM     33  C   LIG    1       -8.315  -1.321  -0.618  0.00  0.00    +0.002 C 
ATOM     34  C   LIG    1       -8.763  -2.481  -1.126  0.00  0.00    +0.009 C 
ENDBRANCH   6  33
BRANCH  31  35
ATOM     35  C   LIG    1       -7.179   6.515  -0.940  0.00  0.00    +0.002 C 
ATOM     36  C   LIG    1       -8.368   7.048  -0.612  0.00  0.00    +0.009 C 
ENDBRANCH  31  35
BRANCH  13  37
ATOM     37  C   LIG    1        1.409   0.121   0.465  0.00  0.00    +0.048 C 
BRANCH  37  38
ATOM     38  C   LIG    1        1.822   0.358   1.940  0.00  0.00    +0.125 C 
BRANCH  38  39
ATOM     39  C   LIG    1        3.347   0.423   2.192  0.00  0.00    +0.305 C 
ATOM     40  O   LIG    1        3.699   0.842   3.317  0.00  0.00    -0.251 OA
BRANCH  39  41
ATOM     41  O   LIG    1        4.145   0.047   1.303  0.00  0.00    -0.481 OA
ATOM     42  H   LIG    1        3.820  -0.257   0.479  0.00  0.00    +0.295 HD
ENDBRANCH  39  41
ENDBRANCH  38  39
ENDBRANCH  37  38
ENDBRANCH  13  37
BRANCH  17  43
ATOM     43  C   LIG    1        0.647   5.435  -0.016  0.00  0.00    +0.048 C 
BRANCH  43  44
ATOM     44  C   LIG    1        1.472   5.116  -1.294  0.00  0.00    +0.125 C 
BRANCH  44  45
ATOM     45  C   LIG    1        0.874   5.705  -2.591  0.00  0.00    +0.305 C 
ATOM     46  O   LIG    1        0.632   6.933  -2.625  0.00  0.00    -0.251 OA
BRANCH  45  47
ATOM     47  O   LIG    1        0.672   4.916  -3.542  0.00  0.00    -0.481 OA
ATOM     48  H   LIG    1        0.310   5.234  -4.346  0.00  0.00    +0.295 HD
ENDBRANCH  45  47
ENDBRANCH  44  45
ENDBRANCH  43  44
ENDBRANCH  17  43
TORSDOF 10
