REMARK  Name = DB16825
REMARK                            x       y       z     vdW  Elec       q    Type
REMARK                         _______ _______ _______ _____ _____    ______ ____
ROOT
ATOM      1  C   LIG    1        1.517   0.008  -0.016  0.00  0.00    -0.028 A 
ATOM      2  C   LIG    1        2.217  -0.011  -1.226  0.00  0.00    +0.043 A 
ATOM      3  C   LIG    1        3.613  -0.019  -1.234  0.00  0.00    +0.131 A 
ATOM      4  C   LIG    1        4.328  -0.001  -0.029  0.00  0.00    +0.017 A 
ATOM      5  C   LIG    1        3.623   0.025   1.179  0.00  0.00    +0.011 A 
ATOM      6  F   LIG    1        4.267  -0.041  -2.419  0.00  0.00    -0.205 F 
ATOM      7  C   LIG    1        2.228   0.030   1.187  0.00  0.00    +0.005 A 
ENDROOT
BRANCH   4   8
ATOM      8  C   LIG    1        5.808  -0.004  -0.022  0.00  0.00    -0.014 A 
ATOM      9  C   LIG    1        6.515  -1.209  -0.018  0.00  0.00    +0.010 A 
ATOM     10  C   LIG    1        7.910  -1.211  -0.010  0.00  0.00    +0.022 A 
ATOM     11  C   LIG    1        8.615  -0.007  -0.004  0.00  0.00    +0.059 A 
ATOM     12 CL   LIG    1       10.344  -0.050   0.005  0.00  0.00    -0.082 Cl
ATOM     13  C   LIG    1        7.915   1.207  -0.006  0.00  0.00    +0.060 A 
ATOM     14 CL   LIG    1        8.744   2.725   0.002  0.00  0.00    -0.082 Cl
ATOM     15  C   LIG    1        6.519   1.201  -0.014  0.00  0.00    +0.030 A 
ENDBRANCH   4   8
BRANCH   1  18
ATOM     16  C   LIG    1       -0.748  -1.065  -0.778  0.00  0.00    +0.024 C 
ATOM     17  C   LIG    1       -0.733  -1.102   0.724  0.00  0.00    +0.024 C 
ATOM     18  C   LIG    1       -0.009   0.026  -0.007  0.00  0.00    +0.093 C 
BRANCH  18  19
ATOM     19  C   LIG    1       -0.664   1.424   0.033  0.00  0.00    +0.315 C 
ATOM     20  O   LIG    1       -0.899   1.923   1.158  0.00  0.00    -0.250 OA
BRANCH  19  21
ATOM     21  O   LIG    1       -0.898   1.986  -1.061  0.00  0.00    -0.480 OA
ATOM     22  H   LIG    1       -0.695   1.550  -1.865  0.00  0.00    +0.295 HD
ENDBRANCH  19  21
ENDBRANCH  18  19
ENDBRANCH   1  18
TORSDOF 4
