REMARK  Name = DB16700
REMARK                            x       y       z     vdW  Elec       q    Type
REMARK                         _______ _______ _______ _____ _____    ______ ____
ROOT
ATOM      1  N   LIG    1        0.016   0.074  -0.062  0.00  0.00    -0.284 N 
ATOM      2  H   LIG    1       -0.425  -0.752  -0.440  0.00  0.00    +0.155 HD
ATOM      3  C   LIG    1       -0.798   1.101   0.268  0.00  0.00    +0.225 C 
ATOM      4  O   LIG    1       -0.410   2.228   0.584  0.00  0.00    -0.275 OA
ENDROOT
BRANCH   1  11
ATOM      5 CL   LIG    1        1.179  -1.802  -2.079  0.00  0.00    -0.082 Cl
ATOM      6  C   LIG    1        2.068  -0.821  -0.961  0.00  0.00    +0.062 A 
ATOM      7  C   LIG    1        3.462  -0.893  -0.980  0.00  0.00    +0.022 A 
ATOM      8  C   LIG    1        4.220  -0.126  -0.099  0.00  0.00    +0.005 A 
ATOM      9  C   LIG    1        3.593   0.726   0.817  0.00  0.00    -0.042 A 
ATOM     10  C   LIG    1        2.197   0.804   0.831  0.00  0.00    +0.028 A 
ATOM     11  C   LIG    1        1.423   0.036  -0.055  0.00  0.00    +0.052 A 
BRANCH   9  12
ATOM     12  C   LIG    1        4.420   1.559   1.805  0.00  0.00    +0.033 C 
BRANCH  12  13
ATOM     13  C   LIG    1        5.222   2.649   1.062  0.00  0.00    -0.003 C 
ATOM     14  C   LIG    1        4.523   3.887   0.559  0.00  0.00    +0.004 C 
ATOM     15  C   LIG    1        5.493   3.976   1.725  0.00  0.00    +0.004 C 
ENDBRANCH  12  13
BRANCH  12  16
ATOM     16  C   LIG    1        5.363   0.701   2.706  0.00  0.00    +0.129 C 
BRANCH  16  17
ATOM     17  C   LIG    1        4.657  -0.388   3.551  0.00  0.00    +0.305 C 
ATOM     18  O   LIG    1        5.278  -1.460   3.724  0.00  0.00    -0.251 OA
BRANCH  17  19
ATOM     19  O   LIG    1        3.535  -0.136   4.049  0.00  0.00    -0.481 OA
ATOM     20  H   LIG    1        2.925   0.401   3.583  0.00  0.00    +0.295 HD
ENDBRANCH  17  19
ENDBRANCH  16  17
ENDBRANCH  12  16
ENDBRANCH   9  12
ENDBRANCH   1  11
BRANCH   3  21
ATOM     21  C   LIG    1       -2.314   0.810   0.182  0.00  0.00    +0.116 C 
BRANCH  21  22
ATOM     22  C   LIG    1       -2.833   1.363  -1.157  0.00  0.00    -0.035 A 
ATOM     23  C   LIG    1       -3.038   2.738  -1.339  0.00  0.00    +0.006 A 
ATOM     24  C   LIG    1       -3.494   3.223  -2.561  0.00  0.00    +0.020 A 
ATOM     25  C   LIG    1       -3.739   2.337  -3.608  0.00  0.00    +0.041 A 
ATOM     26  C   LIG    1       -3.528   0.970  -3.442  0.00  0.00    +0.020 A 
ATOM     27 CL   LIG    1       -4.305   2.939  -5.124  0.00  0.00    -0.084 Cl
ATOM     28  C   LIG    1       -3.073   0.485  -2.220  0.00  0.00    +0.006 A 
ENDBRANCH  21  22
BRANCH  21  29
ATOM     29  C   LIG    1       -3.136   1.282   1.438  0.00  0.00    +0.106 C 
ATOM     30  C   LIG    1       -4.658   1.065   1.237  0.00  0.00    +0.017 C 
BRANCH  29  31
ATOM     31  C   LIG    1       -2.679   0.632   2.779  0.00  0.00    +0.394 C 
ATOM     32  F   LIG    1       -2.747  -0.699   2.723  0.00  0.00    -0.170 F 
ATOM     33  F   LIG    1       -1.428   0.949   3.112  0.00  0.00    -0.170 F 
ATOM     34  F   LIG    1       -3.445   1.020   3.799  0.00  0.00    -0.170 F 
ENDBRANCH  29  31
ENDBRANCH  21  29
ENDBRANCH   3  21
TORSDOF 10
