REMARK  Name = DB16688
REMARK                            x       y       z     vdW  Elec       q    Type
REMARK                         _______ _______ _______ _____ _____    ______ ____
ROOT
ATOM      1  C   LIG    1        1.524   0.032   0.008  0.00  0.00    +0.093 A 
ATOM      2  C   LIG    1        2.240   1.007  -0.718  0.00  0.00    +0.050 A 
ATOM      3  C   LIG    1        3.634   0.961  -0.727  0.00  0.00    +0.034 A 
ATOM      4  C   LIG    1        4.310  -0.057  -0.017  0.00  0.00    +0.004 A 
ATOM      5  C   LIG    1        5.722  -0.162   0.014  0.00  0.00    +0.030 A 
ATOM      6  C   LIG    1        6.332  -1.190   0.730  0.00  0.00    +0.042 A 
ATOM      7  C   LIG    1        5.562  -2.123   1.422  0.00  0.00    +0.022 A 
ATOM      8  C   LIG    1        4.171  -2.045   1.410  0.00  0.00    +0.030 A 
ATOM      9 CL   LIG    1        8.053  -1.308   0.761  0.00  0.00    -0.084 Cl
ATOM     10  C   LIG    1        3.523  -1.012   0.691  0.00  0.00    +0.072 A 
ATOM     11  N   LIG    1        2.165  -0.958   0.693  0.00  0.00    -0.247 NA
ENDROOT
BRANCH   1  13
ATOM     12  C   LIG    1       -0.598  -0.919   1.189  0.00  0.00    +0.048 C 
ATOM     13  C   LIG    1       -0.028  -0.010   0.067  0.00  0.00    +0.104 C 
ATOM     14  C   LIG    1       -0.603  -0.456  -1.295  0.00  0.00    +0.048 C 
BRANCH  13  15
ATOM     15  O   LIG    1       -0.580   1.264   0.357  0.00  0.00    -0.383 OA
ATOM     16  H   LIG    1       -1.534   1.177   0.409  0.00  0.00    +0.211 HD
ENDBRANCH  13  15
ENDBRANCH   1  13
BRANCH   2  17
ATOM     17  N   LIG    1        1.617   2.026  -1.442  0.00  0.00    -0.356 N 
ATOM     18  H   LIG    1        0.636   2.200  -1.271  0.00  0.00    +0.142 HD
ATOM     19  H   LIG    1        2.193   2.732  -1.877  0.00  0.00    +0.142 HD
ENDBRANCH   2  17
TORSDOF 3
