REMARK  Name = DB16274
REMARK                            x       y       z     vdW  Elec       q    Type
REMARK                         _______ _______ _______ _____ _____    ______ ____
ROOT
ATOM      1  O   LIG    1       -2.523   2.618   0.005  0.00  0.00    -0.267 OA
ATOM      2  C   LIG    1       -2.043   1.487   0.013  0.00  0.00    +0.262 A 
ATOM      3  C   LIG    1       -2.741   0.206   0.041  0.00  0.00    +0.103 A 
ATOM      4  C   LIG    1       -4.076  -0.209   0.066  0.00  0.00    +0.150 A 
ATOM      5  N   LIG    1       -4.187  -1.522   0.074  0.00  0.00    -0.177 NA
ATOM      6  N   LIG    1       -2.921  -1.997   0.060  0.00  0.00    -0.243 N 
ATOM      7  C   LIG    1       -2.006  -0.970   0.043  0.00  0.00    +0.166 A 
ATOM      8  N   LIG    1       -0.645  -1.062   0.023  0.00  0.00    -0.214 NA
ATOM      9  C   LIG    1       -0.008   0.064  -0.001  0.00  0.00    +0.118 A 
ATOM     10  N   LIG    1       -0.684   1.276  -0.009  0.00  0.00    -0.310 N 
ATOM     11  H   LIG    1       -0.129   2.119  -0.037  0.00  0.00    +0.170 HD
ENDROOT
BRANCH   6  12
ATOM     12  C   LIG    1       -2.654  -3.447   0.047  0.00  0.00    +0.114 C 
ATOM     13  C   LIG    1       -3.270  -4.104   1.306  0.00  0.00    +0.055 C 
ATOM     14  C   LIG    1       -3.218  -5.641   1.205  0.00  0.00    +0.162 C 
ATOM     15  O   LIG    1       -3.847  -6.070  -0.002  0.00  0.00    -0.380 OA
ATOM     16  C   LIG    1       -3.197  -5.606  -1.186  0.00  0.00    +0.162 C 
ATOM     17  C   LIG    1       -3.247  -4.067  -1.242  0.00  0.00    +0.055 C 
ENDBRANCH   6  12
BRANCH   9  18
ATOM     18  C   LIG    1        1.512   0.090  -0.054  0.00  0.00    +0.129 C 
BRANCH  18  19
ATOM     19  C   LIG    1        2.063   0.094  -1.475  0.00  0.00    +0.049 A 
ATOM     20  C   LIG    1        2.305   1.292  -2.156  0.00  0.00    +0.024 A 
ATOM     21  C   LIG    1        2.807   1.230  -3.458  0.00  0.00    +0.003 A 
ATOM     22  C   LIG    1        3.053  -0.015  -4.042  0.00  0.00    +0.020 A 
ATOM     23  C   LIG    1        2.786  -1.165  -3.297  0.00  0.00    +0.111 A 
ATOM     24  N   LIG    1        2.299  -1.126  -2.031  0.00  0.00    -0.259 NA
ENDBRANCH  18  19
ENDBRANCH   9  18
TORSDOF 3
