REMARK  Name = DB16059
REMARK                            x       y       z     vdW  Elec       q    Type
REMARK                         _______ _______ _______ _____ _____    ______ ____
ROOT
ATOM      1  N   LIG    1        1.162   0.055   0.110  0.00  0.00    -0.264 N 
ATOM      2  H   LIG    1        1.550  -0.868   0.244  0.00  0.00    +0.157 HD
ATOM      3  C   LIG    1        2.047   1.022  -0.233  0.00  0.00    +0.271 C 
ATOM      4  O   LIG    1        1.723   2.191  -0.449  0.00  0.00    -0.268 OA
ENDROOT
BRANCH   1   6
ATOM      5  C   LIG    1       -0.943  -1.106   0.443  0.00  0.00    +0.070 A 
ATOM      6  C   LIG    1       -0.239   0.113   0.279  0.00  0.00    +0.146 A 
ATOM      7  N   LIG    1       -0.864   1.325   0.338  0.00  0.00    -0.238 NA
ATOM      8  C   LIG    1       -2.199   1.364   0.555  0.00  0.00    +0.113 A 
ATOM      9  C   LIG    1       -2.966   0.217   0.726  0.00  0.00    +0.022 A 
ATOM     10  C   LIG    1       -2.329  -1.021   0.666  0.00  0.00    +0.028 A 
BRANCH   5  15
ATOM     11  C   LIG    1       -0.316  -5.859  -1.083  0.00  0.00    -0.011 C 
ATOM     12  C   LIG    1        0.727  -5.108  -0.220  0.00  0.00    -0.071 C 
ATOM     13  C   LIG    1        0.169  -4.682   1.156  0.00  0.00    +0.006 C 
ATOM     14  C   LIG    1       -0.862  -3.538   1.021  0.00  0.00    +0.104 C 
ATOM     15  N   LIG    1       -0.312  -2.350   0.335  0.00  0.00    -0.327 N 
ATOM     16  C   LIG    1        0.217  -2.729  -0.992  0.00  0.00    +0.104 C 
ATOM     17  C   LIG    1        1.283  -3.846  -0.914  0.00  0.00    +0.006 C 
BRANCH  12  18
ATOM     18  N   LIG    1        1.906  -6.067   0.025  0.00  0.00    +0.382 N 
ATOM     19  H   LIG    1        1.590  -6.885   0.526  0.00  0.00    -0.089 HD
ATOM     20  H   LIG    1        2.304  -6.358  -0.857  0.00  0.00    -0.089 HD
ATOM     21  H   LIG    1        2.620  -5.605   0.569  0.00  0.00    -0.089 HD
ENDBRANCH  12  18
ENDBRANCH   5  15
ENDBRANCH   1   6
BRANCH   3  22
ATOM     22  C   LIG    1        3.499   0.568  -0.350  0.00  0.00    +0.166 A 
ATOM     23  N   LIG    1        3.747  -0.759  -0.124  0.00  0.00    -0.236 NA
ATOM     24  C   LIG    1        5.020  -1.226  -0.195  0.00  0.00    +0.109 A 
ATOM     25  C   LIG    1        6.066  -0.361  -0.523  0.00  0.00    +0.142 A 
ATOM     26  N   LIG    1        5.851   0.957  -0.759  0.00  0.00    -0.236 NA
ATOM     27  C   LIG    1        4.579   1.427  -0.673  0.00  0.00    +0.147 A 
BRANCH  24  28
ATOM     28  C   LIG    1        5.220  -2.678   0.066  0.00  0.00    +0.102 A 
ATOM     29  N   LIG    1        5.878  -3.325  -0.936  0.00  0.00    -0.253 NA
ATOM     30  C   LIG    1        6.107  -4.655  -0.819  0.00  0.00    +0.111 A 
ATOM     31  C   LIG    1        5.701  -5.393   0.289  0.00  0.00    +0.020 A 
ATOM     32  C   LIG    1        5.033  -4.731   1.317  0.00  0.00    +0.016 A 
ATOM     33  C   LIG    1        4.775  -3.354   1.228  0.00  0.00    +0.082 A 
BRANCH  33  34
ATOM     34  C   LIG    1        4.076  -2.639   2.394  0.00  0.00    +0.419 C 
ATOM     35  F   LIG    1        2.805  -2.401   2.074  0.00  0.00    -0.166 F 
ATOM     36  F   LIG    1        4.676  -1.483   2.679  0.00  0.00    -0.166 F 
ATOM     37  F   LIG    1        4.085  -3.375   3.507  0.00  0.00    -0.166 F 
ENDBRANCH  33  34
ENDBRANCH  24  28
BRANCH  27  38
ATOM     38  N   LIG    1        4.441   2.794  -0.922  0.00  0.00    -0.341 N 
ATOM     39  H   LIG    1        5.259   3.344  -1.143  0.00  0.00    +0.144 HD
ATOM     40  H   LIG    1        3.524   3.216  -0.875  0.00  0.00    +0.144 HD
ENDBRANCH  27  38
ENDBRANCH   3  22
TORSDOF 7
