REMARK  Name = DB16745
REMARK                            x       y       z     vdW  Elec       q    Type
REMARK                         _______ _______ _______ _____ _____    ______ ____
ROOT
ATOM      1  C   LIG    1       -0.708   1.184  -0.168  0.00  0.00    +0.128 A 
ATOM      2  N   LIG    1       -2.055   1.294  -0.251  0.00  0.00    -0.238 NA
ATOM      3  C   LIG    1       -2.817   0.166  -0.205  0.00  0.00    +0.140 A 
ATOM      4  C   LIG    1       -2.240  -1.115  -0.079  0.00  0.00    +0.068 A 
ATOM      5  C   LIG    1       -0.839  -1.195   0.001  0.00  0.00    +0.043 A 
ATOM      6  C   LIG    1       -0.044  -0.040  -0.037  0.00  0.00    +0.079 A 
ENDROOT
BRANCH   3   7
ATOM      7  N   LIG    1       -4.220   0.303  -0.297  0.00  0.00    -0.325 N 
ATOM      8  H   LIG    1       -4.765  -0.521  -0.090  0.00  0.00    +0.148 HD
BRANCH   7   9
ATOM      9  C   LIG    1       -4.905   1.589  -0.155  0.00  0.00    +0.072 C 
ATOM     10  C   LIG    1       -6.259   1.513  -0.894  0.00  0.00    +0.022 C 
ATOM     11  C   LIG    1       -7.088   2.797  -0.687  0.00  0.00    +0.002 C 
ATOM     12  C   LIG    1       -7.272   3.128   0.808  0.00  0.00    +0.000 C 
ATOM     13  C   LIG    1       -5.927   3.181   1.560  0.00  0.00    +0.002 C 
ATOM     14  C   LIG    1       -5.098   1.898   1.349  0.00  0.00    +0.022 C 
ENDBRANCH   7   9
ENDBRANCH   3   7
BRANCH   4  15
ATOM     15  N   LIG    1       -3.055  -2.269  -0.027  0.00  0.00    -0.337 N 
ATOM     16  H   LIG    1       -4.022  -2.164  -0.299  0.00  0.00    +0.146 HD
BRANCH  15  17
ATOM     17  C   LIG    1       -2.517  -3.630  -0.018  0.00  0.00    +0.137 C 
BRANCH  17  18
ATOM     18  C   LIG    1       -1.904  -4.016   1.327  0.00  0.00    -0.030 A 
ATOM     19  C   LIG    1       -2.600  -3.795   2.522  0.00  0.00    +0.005 A 
ATOM     20  C   LIG    1       -2.033  -4.166   3.738  0.00  0.00    +0.000 A 
ATOM     21  C   LIG    1       -0.777  -4.769   3.759  0.00  0.00    +0.000 A 
ATOM     22  C   LIG    1       -0.086  -5.009   2.573  0.00  0.00    +0.000 A 
ATOM     23  C   LIG    1       -0.654  -4.640   1.357  0.00  0.00    +0.005 A 
ENDBRANCH  17  18
ENDBRANCH  15  17
ENDBRANCH   4  15
BRANCH   6  24
ATOM     24  C   LIG    1        1.451  -0.082   0.055  0.00  0.00    +0.341 C 
ATOM     25  O   LIG    1        2.164   0.922  -0.030  0.00  0.00    -0.245 OA
BRANCH  24  26
ATOM     26  O   LIG    1        1.935  -1.334   0.258  0.00  0.00    -0.461 OA
BRANCH  26  27
ATOM     27  C   LIG    1        3.331  -1.573   0.383  0.00  0.00    +0.229 C 
ATOM     28  C   LIG    1        3.565  -3.064   0.646  0.00  0.00    +0.048 C 
ENDBRANCH  26  27
ENDBRANCH  24  26
ENDBRANCH   6  24
TORSDOF 8
