REMARK  Name = DB16325
REMARK                            x       y       z     vdW  Elec       q    Type
REMARK                         _______ _______ _______ _____ _____    ______ ____
ROOT
ATOM      1  N   LIG    1        4.122  -2.214   0.247  0.00  0.00    -0.285 N 
ATOM      2  C   LIG    1        3.551  -3.478   0.208  0.00  0.00    +0.167 A 
ATOM      3  N   LIG    1        2.358  -3.869  -0.261  0.00  0.00    -0.216 NA
ATOM      4  C   LIG    1        2.139  -5.204  -0.129  0.00  0.00    +0.225 A 
ATOM      5  N   LIG    1        2.969  -6.134   0.410  0.00  0.00    -0.219 NA
ATOM      6  C   LIG    1        4.172  -5.704   0.888  0.00  0.00    +0.150 A 
ATOM      7  C   LIG    1        4.509  -4.339   0.803  0.00  0.00    +0.147 A 
ATOM      8  N   LIG    1        5.615  -3.641   1.204  0.00  0.00    -0.231 NA
ATOM      9  C   LIG    1        5.337  -2.404   0.879  0.00  0.00    +0.203 A 
ENDROOT
BRANCH   1  13
ATOM     10  C   LIG    1        1.538   0.202   0.070  0.00  0.00    +0.237 C 
ATOM     11  C   LIG    1        2.041   0.347  -1.382  0.00  0.00    +0.185 C 
ATOM     12  C   LIG    1        2.915  -0.897  -1.564  0.00  0.00    +0.196 C 
ATOM     13  C   LIG    1        3.560  -0.945  -0.176  0.00  0.00    +0.254 C 
ATOM     14  O   LIG    1        2.572  -0.540   0.726  0.00  0.00    -0.339 OA
BRANCH  10  17
ATOM     15  N   LIG    1        0.157  -1.759   0.705  0.00  0.00    -0.313 N 
ATOM     16  H   LIG    1        1.023  -2.138   1.060  0.00  0.00    +0.149 HD
ATOM     17  C   LIG    1        0.182  -0.537   0.139  0.00  0.00    +0.245 C 
ATOM     18  O   LIG    1       -0.824   0.009  -0.317  0.00  0.00    -0.273 OA
BRANCH  15  20
ATOM     19  C   LIG    1       -1.447  -3.275  -0.481  0.00  0.00    +0.024 C 
ATOM     20  C   LIG    1       -1.024  -2.610   0.838  0.00  0.00    +0.101 C 
ENDBRANCH  15  20
ENDBRANCH  10  17
BRANCH  11  21
ATOM     21  O   LIG    1        2.747   1.566  -1.562  0.00  0.00    -0.386 OA
ATOM     22  H   LIG    1        3.094   1.587  -2.457  0.00  0.00    +0.210 HD
ENDBRANCH  11  21
BRANCH  12  23
ATOM     23  O   LIG    1        3.900  -0.846  -2.581  0.00  0.00    -0.385 OA
ATOM     24  H   LIG    1        3.470  -0.977  -3.430  0.00  0.00    +0.210 HD
ENDBRANCH  12  23
ENDBRANCH   1  13
BRANCH   6  25
ATOM     25  N   LIG    1        5.074  -6.614   1.465  0.00  0.00    -0.324 N 
ATOM     26  H   LIG    1        5.960  -6.274   1.810  0.00  0.00    +0.148 HD
BRANCH  25  27
ATOM     27  C   LIG    1        4.762  -8.034   1.631  0.00  0.00    +0.072 C 
ATOM     28  C   LIG    1        6.010  -8.841   2.050  0.00  0.00    +0.022 C 
ATOM     29  C   LIG    1        5.556  -9.770   3.179  0.00  0.00    +0.002 C 
ATOM     30  C   LIG    1        4.450  -8.986   3.878  0.00  0.00    +0.002 C 
ATOM     31  C   LIG    1        3.706  -8.300   2.730  0.00  0.00    +0.022 C 
ENDBRANCH  25  27
ENDBRANCH   6  25
TORSDOF 7
