REMARK  Name = DB16514
REMARK                            x       y       z     vdW  Elec       q    Type
REMARK                         _______ _______ _______ _____ _____    ______ ____
ROOT
ATOM      1  C   LIG    1        1.377   0.277   0.061  0.00  0.00    +0.234 C 
ATOM      2  N   LIG    1        1.702   1.168   1.014  0.00  0.00    -0.304 N 
ATOM      3  H   LIG    1        1.024   1.382   1.730  0.00  0.00    +0.149 HD
ATOM      4  O   LIG    1        2.134  -0.072  -0.847  0.00  0.00    -0.274 OA
ENDROOT
BRANCH   1   5
ATOM      5  C   LIG    1       -0.035  -0.340   0.184  0.00  0.00    +0.159 C 
BRANCH   5   7
ATOM      6  C   LIG    1       -0.984  -0.009  -2.112  0.00  0.00    +0.261 C 
ATOM      7  N   LIG    1       -0.567  -0.799  -1.105  0.00  0.00    -0.299 N 
ATOM      8  H   LIG    1       -0.580  -1.800  -1.234  0.00  0.00    +0.150 HD
ATOM      9  O   LIG    1       -0.985   1.224  -2.068  0.00  0.00    -0.269 OA
BRANCH   6  13
ATOM     10  C   LIG    1       -2.443  -3.413  -5.587  0.00  0.00    +0.129 A 
ATOM     11  C   LIG    1       -2.109  -2.286  -4.814  0.00  0.00    +0.042 A 
ATOM     12  C   LIG    1       -1.583  -2.091  -3.494  0.00  0.00    +0.044 A 
ATOM     13  C   LIG    1       -1.456  -0.723  -3.273  0.00  0.00    +0.103 A 
ATOM     14  N   LIG    1       -1.893  -0.084  -4.413  0.00  0.00    -0.350 N 
ATOM     15  H   LIG    1       -1.895   0.923  -4.488  0.00  0.00    +0.166 HD
ATOM     16  C   LIG    1       -2.296  -0.989  -5.373  0.00  0.00    +0.051 A 
ATOM     17  C   LIG    1       -2.800  -0.793  -6.663  0.00  0.00    +0.026 A 
ATOM     18  C   LIG    1       -3.120  -1.935  -7.397  0.00  0.00    +0.006 A 
ATOM     19  C   LIG    1       -2.948  -3.216  -6.880  0.00  0.00    +0.046 A 
BRANCH  10  20
ATOM     20  O   LIG    1       -2.232  -4.633  -4.974  0.00  0.00    -0.494 OA
ATOM     21  C   LIG    1       -2.539  -5.819  -5.698  0.00  0.00    +0.277 C 
ENDBRANCH  10  20
ENDBRANCH   6  13
ENDBRANCH   5   7
BRANCH   5  22
ATOM     22  C   LIG    1       -0.030  -1.519   1.193  0.00  0.00    +0.034 C 
BRANCH  22  23
ATOM     23  C   LIG    1       -1.418  -2.114   1.528  0.00  0.00    -0.015 C 
ATOM     24  C   LIG    1       -1.275  -3.368   2.417  0.00  0.00    +0.007 C 
ATOM     25  C   LIG    1       -2.375  -1.069   2.140  0.00  0.00    +0.007 C 
ENDBRANCH  22  23
ENDBRANCH   5  22
ENDBRANCH   1   5
BRANCH   2  26
ATOM     26  C   LIG    1        2.993   1.848   1.151  0.00  0.00    +0.142 C 
BRANCH  26  27
ATOM     27  C   LIG    1        3.115   2.039   2.655  0.00  0.00    +0.179 C 
ATOM     28  O   LIG    1        2.814   3.091   3.224  0.00  0.00    -0.293 OA
BRANCH  27  29
ATOM     29  C   LIG    1        3.687   0.881   3.482  0.00  0.00    +0.248 C 
BRANCH  29  30
ATOM     30  O   LIG    1        2.968  -0.317   3.255  0.00  0.00    -0.279 OA
BRANCH  30  31
ATOM     31  P   LIG    1        3.765  -1.741   2.596  0.00  0.00    +0.473 P 
ATOM     32  O   LIG    1        2.684  -2.835   2.544  0.00  0.00    -0.228 OA
BRANCH  31  33
ATOM     33  O   LIG    1        4.902  -2.071   3.580  0.00  0.00    -0.303 OA
ATOM     34  H   LIG    1        4.525  -2.317   4.439  0.00  0.00    +0.222 HD
ENDBRANCH  31  33
BRANCH  31  35
ATOM     35  O   LIG    1        4.281  -1.340   1.202  0.00  0.00    -0.303 OA
ATOM     36  H   LIG    1        3.528  -1.143   0.623  0.00  0.00    +0.222 HD
ENDBRANCH  31  35
ENDBRANCH  30  31
ENDBRANCH  29  30
ENDBRANCH  27  29
ENDBRANCH  26  27
BRANCH  26  37
ATOM     37  C   LIG    1        3.058   3.200   0.383  0.00  0.00    +0.043 C 
BRANCH  37  38
ATOM     38  C   LIG    1        3.146   3.060  -1.160  0.00  0.00    +0.079 C 
ATOM     39  C   LIG    1        3.167   4.436  -1.842  0.00  0.00    +0.216 C 
ATOM     40  O   LIG    1        2.467   5.408  -1.561  0.00  0.00    -0.276 OA
ATOM     41  N   LIG    1        4.080   4.347  -2.826  0.00  0.00    -0.315 N 
ATOM     42  H   LIG    1        4.233   5.089  -3.494  0.00  0.00    +0.149 HD
ATOM     43  C   LIG    1        4.679   3.032  -3.002  0.00  0.00    +0.105 C 
ATOM     44  C   LIG    1        4.397   2.356  -1.674  0.00  0.00    +0.031 C 
ENDBRANCH  37  38
ENDBRANCH  26  37
ENDBRANCH   2  26
TORSDOF 15
