REMARK  Name = DB16932
REMARK                            x       y       z     vdW  Elec       q    Type
REMARK                         _______ _______ _______ _____ _____    ______ ____
ROOT
ATOM      1  N   LIG    1        1.348  -0.105   0.000  0.00  0.00    -0.232 N 
ATOM      2  H   LIG    1        1.882   0.753   0.000  0.00  0.00    +0.172 HD
ENDROOT
BRANCH   1   3
ATOM      3  N   LIG    1        2.063  -1.276  -0.000  0.00  0.00    -0.192 NA
ATOM      4  C   LIG    1        3.330  -1.143  -0.000  0.00  0.00    +0.139 C 
BRANCH   4   5
ATOM      5  C   LIG    1        4.274  -2.281  -0.000  0.00  0.00    +0.013 A 
ATOM      6  C   LIG    1        5.675  -2.090  -0.000  0.00  0.00    +0.050 A 
ATOM      7 CL   LIG    1        6.407  -0.516   0.000  0.00  0.00    -0.083 Cl
ATOM      8  C   LIG    1        6.539  -3.188  -0.000  0.00  0.00    +0.020 A 
ATOM      9  C   LIG    1        6.036  -4.485  -0.001  0.00  0.00    +0.001 A 
ATOM     10  C   LIG    1        4.662  -4.694  -0.001  0.00  0.00    +0.001 A 
ATOM     11  C   LIG    1        3.793  -3.604  -0.000  0.00  0.00    +0.011 A 
ENDBRANCH   4   5
ENDBRANCH   1   3
BRANCH   1  12
ATOM     12  C   LIG    1        0.006  -0.045   0.000  0.00  0.00    +0.199 C 
BRANCH  12  13
ATOM     13  N   LIG    1       -0.805  -1.105   0.000  0.00  0.00    -0.293 NA
ATOM     14  H   LIG    1       -0.408  -2.034  -0.000  0.00  0.00    +0.122 HD
ATOM     15  H   LIG    1       -1.806  -0.979   0.000  0.00  0.00    +0.122 HD
ENDBRANCH  12  13
BRANCH  12  16
ATOM     16  N   LIG    1       -0.558   1.154   0.000  0.00  0.00    -0.293 NA
ATOM     17  H   LIG    1       -1.564   1.238   0.000  0.00  0.00    +0.122 HD
ATOM     18  H   LIG    1        0.019   1.983   0.000  0.00  0.00    +0.122 HD
ENDBRANCH  12  16
ENDBRANCH   1  12
TORSDOF 5
