REMARK  Name = DB16254
REMARK                            x       y       z     vdW  Elec       q    Type
REMARK                         _______ _______ _______ _____ _____    ______ ____
ROOT
ATOM      1  N   LIG    1        1.436   0.153  -0.058  0.00  0.00    -0.269 N 
ATOM      2  H   LIG    1        1.839   0.419  -0.944  0.00  0.00    +0.156 HD
ATOM      3  C   LIG    1        2.253   0.019   1.003  0.00  0.00    +0.304 C 
ATOM      4  N   LIG    1        3.542   0.076   0.632  0.00  0.00    -0.298 N 
ATOM      5  H   LIG    1        3.756   0.037  -0.354  0.00  0.00    +0.150 HD
ATOM      6  O   LIG    1        1.869  -0.128   2.166  0.00  0.00    -0.253 OA
ENDROOT
BRANCH   1   8
ATOM      7  C   LIG    1       -0.608  -1.202   0.163  0.00  0.00    -0.023 A 
ATOM      8  C   LIG    1        0.032   0.054  -0.015  0.00  0.00    +0.042 A 
ATOM      9  C   LIG    1       -0.732   1.229  -0.213  0.00  0.00    -0.023 A 
ATOM     10  C   LIG    1       -2.129   1.137  -0.185  0.00  0.00    +0.006 A 
ATOM     11  C   LIG    1       -2.762  -0.080   0.025  0.00  0.00    +0.001 A 
ATOM     12  C   LIG    1       -2.010  -1.235   0.192  0.00  0.00    +0.006 A 
BRANCH   7  14
ATOM     13  C   LIG    1        0.806  -2.927  -1.079  0.00  0.00    +0.012 C 
ATOM     14  C   LIG    1        0.191  -2.523   0.277  0.00  0.00    +0.015 C 
ATOM     15  C   LIG    1       -0.588  -3.717   0.874  0.00  0.00    +0.012 C 
ENDBRANCH   7  14
BRANCH   9  16
ATOM     16  C   LIG    1       -0.065   2.604  -0.440  0.00  0.00    +0.015 C 
ATOM     17  C   LIG    1       -0.889   3.584  -1.305  0.00  0.00    +0.012 C 
ATOM     18  C   LIG    1        0.318   3.262   0.899  0.00  0.00    +0.012 C 
ENDBRANCH   9  16
ENDBRANCH   1   8
BRANCH   4  19
ATOM     19  C   LIG    1        4.699   0.104   1.534  0.00  0.00    +0.117 C 
BRANCH  19  20
ATOM     20  C   LIG    1        5.510   1.440   1.554  0.00  0.00    +0.011 C 
ATOM     21  C   LIG    1        4.594   2.676   1.798  0.00  0.00    +0.013 C 
ATOM     22  C   LIG    1        4.120   3.232   0.448  0.00  0.00    +0.001 C 
ATOM     23  C   LIG    1        5.008   2.594  -0.619  0.00  0.00    +0.001 C 
ATOM     24  C   LIG    1        6.068   1.796   0.145  0.00  0.00    +0.013 C 
BRANCH  20  25
ATOM     25  C   LIG    1        6.619   1.301   2.623  0.00  0.00    -0.040 A 
ATOM     26  C   LIG    1        6.368   1.627   3.960  0.00  0.00    +0.006 A 
ATOM     27  C   LIG    1        7.359   1.480   4.925  0.00  0.00    +0.023 A 
ATOM     28  C   LIG    1        8.633   0.989   4.593  0.00  0.00    +0.029 A 
ATOM     29  C   LIG    1        8.867   0.644   3.251  0.00  0.00    +0.023 A 
ATOM     30  C   LIG    1        7.877   0.790   2.285  0.00  0.00    +0.006 A 
BRANCH  28  31
ATOM     31  N   LIG    1        9.652   0.848   5.578  0.00  0.00    -0.336 N 
ATOM     32  C   LIG    1       10.867   0.094   5.270  0.00  0.00    +0.129 C 
ATOM     33  C   LIG    1        9.333   1.023   6.995  0.00  0.00    +0.129 C 
ENDBRANCH  28  31
ENDBRANCH  20  25
ENDBRANCH  19  20
ENDBRANCH   4  19
TORSDOF 7
