REMARK  Name = DB16841
REMARK                            x       y       z     vdW  Elec       q    Type
REMARK                         _______ _______ _______ _____ _____    ______ ____
ROOT
ATOM      1  O   LIG    1        0.717  -1.224   1.137  0.00  0.00    -0.453 OA
ENDROOT
BRANCH   1   2
ATOM      2  C   LIG    1        1.660  -0.451   1.735  0.00  0.00    +0.162 A 
ATOM      3  C   LIG    1        2.241   0.656   1.222  0.00  0.00    +0.164 A 
ATOM      4  N   LIG    1        3.217   1.397   1.900  0.00  0.00    -0.198 NA
ATOM      5  C   LIG    1        3.604   0.992   3.120  0.00  0.00    +0.346 A 
ATOM      6  O   LIG    1        4.456   1.614   3.750  0.00  0.00    -0.245 OA
ATOM      7  N   LIG    1        2.997  -0.185   3.662  0.00  0.00    -0.309 N 
ATOM      8  H   LIG    1        3.280  -0.487   4.555  0.00  0.00    +0.170 HD
ATOM      9  C   LIG    1        2.091  -0.876   3.039  0.00  0.00    +0.135 A 
ENDBRANCH   1   2
BRANCH   1  10
ATOM     10  C   LIG    1       -0.356  -0.645   0.487  0.00  0.00    +0.129 A 
ATOM     11  C   LIG    1       -0.866  -1.297  -0.637  0.00  0.00    +0.046 A 
ATOM     12  C   LIG    1       -1.967  -0.779  -1.320  0.00  0.00    +0.004 A 
ATOM     13  C   LIG    1       -2.575   0.393  -0.873  0.00  0.00    +0.003 A 
ATOM     14  C   LIG    1       -2.090   1.048   0.261  0.00  0.00    -0.047 A 
ATOM     15  C   LIG    1       -2.763   2.319   0.747  0.00  0.00    +0.044 C 
ATOM     16  C   LIG    1       -0.986   0.525   0.941  0.00  0.00    +0.049 A 
ENDBRANCH   1  10
TORSDOF 2
