REMARK  Name = DB16043
REMARK                            x       y       z     vdW  Elec       q    Type
REMARK                         _______ _______ _______ _____ _____    ______ ____
ROOT
ATOM      1  N   LIG    1        1.413  -0.453   1.055  0.00  0.00    +0.384 N 
ATOM      2  H   LIG    1        1.475   0.305   1.720  0.00  0.00    -0.081 HD
ATOM      3  C   LIG    1        2.495  -0.238  -0.035  0.00  0.00    -0.078 C 
ATOM      4  C   LIG    1        3.900  -0.278   0.609  0.00  0.00    -0.009 C 
ATOM      5  C   LIG    1        4.184  -1.531   1.482  0.00  0.00    +0.034 C 
ATOM      6  C   LIG    1        3.031  -1.734   2.491  0.00  0.00    -0.009 C 
ATOM      7  C   LIG    1        1.640  -1.773   1.830  0.00  0.00    -0.078 C 
ENDROOT
BRANCH   5   8
ATOM      8  C   LIG    1        4.497  -2.814   0.697  0.00  0.00    +0.048 A 
ATOM      9  C   LIG    1        5.512  -3.678   1.124  0.00  0.00    +0.024 A 
ATOM     10  C   LIG    1        5.760  -4.841   0.393  0.00  0.00    +0.007 A 
ATOM     11  C   LIG    1        4.995  -5.118  -0.742  0.00  0.00    +0.067 A 
ATOM     12  C   LIG    1        3.995  -4.218  -1.117  0.00  0.00    +0.215 A 
ATOM     13  N   LIG    1        3.748  -3.081  -0.406  0.00  0.00    -0.218 NA
BRANCH  12  14
ATOM     14  O   LIG    1        3.236  -4.493  -2.240  0.00  0.00    -0.471 OA
BRANCH  14  15
ATOM     15  C   LIG    1        2.203  -3.585  -2.629  0.00  0.00    +0.269 C 
BRANCH  15  16
ATOM     16  C   LIG    1        1.514  -4.116  -3.874  0.00  0.00    +0.025 A 
ATOM     17  C   LIG    1        0.598  -5.170  -3.781  0.00  0.00    +0.131 A 
ATOM     18  F   LIG    1        0.321  -5.733  -2.582  0.00  0.00    -0.205 F 
ATOM     19  C   LIG    1       -0.044  -5.645  -4.926  0.00  0.00    +0.057 A 
ATOM     20  C   LIG    1        0.225  -5.071  -6.172  0.00  0.00    +0.055 A 
ATOM     21  C   LIG    1        1.143  -4.021  -6.267  0.00  0.00    +0.019 A 
ATOM     22  C   LIG    1        1.785  -3.547  -5.123  0.00  0.00    +0.011 A 
BRANCH  20  23
ATOM     23  C   LIG    1       -0.448  -5.563  -7.365  0.00  0.00    +0.099 C 
ATOM     24  N   LIG    1       -0.983  -5.955  -8.313  0.00  0.00    -0.191 NA
ENDBRANCH  20  23
ENDBRANCH  15  16
ENDBRANCH  14  15
ENDBRANCH  12  14
ENDBRANCH   5   8
BRANCH   1  25
ATOM     25  C   LIG    1       -0.009  -0.450   0.434  0.00  0.00    -0.003 C 
BRANCH  25  30
ATOM     26  C   LIG    1       -2.347   4.663  -1.841  0.00  0.00    +0.061 A 
ATOM     27  C   LIG    1       -2.565   3.267  -1.799  0.00  0.00    +0.043 A 
ATOM     28  C   LIG    1       -1.670   2.480  -1.066  0.00  0.00    +0.070 A 
ATOM     29  N   LIG    1       -1.583   1.123  -0.813  0.00  0.00    -0.327 N 
ATOM     30  C   LIG    1       -0.455   0.937  -0.031  0.00  0.00    +0.094 A 
ATOM     31  N   LIG    1        0.157   2.064   0.255  0.00  0.00    -0.234 NA
ATOM     32  C   LIG    1       -0.569   3.034  -0.378  0.00  0.00    +0.089 A 
ATOM     33  C   LIG    1       -0.352   4.414  -0.417  0.00  0.00    +0.030 A 
ATOM     34  C   LIG    1       -1.243   5.201  -1.146  0.00  0.00    +0.017 A 
BRANCH  26  35
ATOM     35  C   LIG    1       -3.287   5.566  -2.620  0.00  0.00    +0.337 C 
ATOM     36  O   LIG    1       -4.254   5.050  -3.231  0.00  0.00    -0.245 OA
BRANCH  35  37
ATOM     37  O   LIG    1       -3.072   6.802  -2.631  0.00  0.00    -0.477 OA
ATOM     38  H   LIG    1       -3.786   7.400  -2.736  0.00  0.00    +0.295 HD
ENDBRANCH  35  37
ENDBRANCH  26  35
BRANCH  29  39
ATOM     39  C   LIG    1       -2.482   0.093  -1.329  0.00  0.00    +0.155 C 
BRANCH  39  40
ATOM     40  C   LIG    1       -2.124  -0.270  -2.784  0.00  0.00    +0.140 C 
ATOM     41  O   LIG    1       -0.779  -0.906  -2.878  0.00  0.00    -0.375 OA
ATOM     42  C   LIG    1       -1.387  -2.127  -3.477  0.00  0.00    +0.163 C 
ATOM     43  C   LIG    1       -2.791  -1.532  -3.344  0.00  0.00    +0.061 C 
ENDBRANCH  39  40
ENDBRANCH  29  39
ENDBRANCH  25  30
ENDBRANCH   1  25
TORSDOF 11
