REMARK  Name = DB16861
REMARK                            x       y       z     vdW  Elec       q    Type
REMARK                         _______ _______ _______ _____ _____    ______ ____
ROOT
ATOM      1  N   LIG    1        1.355   0.024   0.000  0.00  0.00    -0.070 NA
ATOM      2  N   LIG    1        1.900   1.178   0.000  0.00  0.00    -0.070 NA
ENDROOT
BRANCH   1   3
ATOM      3  C   LIG    1       -0.027   0.022   0.000  0.00  0.00    +0.337 C 
ATOM      4  O   LIG    1       -0.769   1.008   0.000  0.00  0.00    -0.250 OA
ATOM      5  N   LIG    1       -0.472  -1.235   0.000  0.00  0.00    -0.311 N 
ATOM      6  H   LIG    1       -1.464  -1.420   0.000  0.00  0.00    +0.147 HD
ATOM      7  H   LIG    1        0.179  -2.007   0.000  0.00  0.00    +0.147 HD
ENDBRANCH   1   3
BRANCH   2   8
ATOM      8  C   LIG    1        3.282   1.180   0.000  0.00  0.00    +0.337 C 
ATOM      9  O   LIG    1        4.024   0.194   0.000  0.00  0.00    -0.250 OA
ATOM     10  N   LIG    1        3.727   2.437   0.000  0.00  0.00    -0.311 N 
ATOM     11  H   LIG    1        4.719   2.622   0.000  0.00  0.00    +0.147 HD
ATOM     12  H   LIG    1        3.076   3.209   0.000  0.00  0.00    +0.147 HD
ENDBRANCH   2   8
TORSDOF 2
