REMARK  Name = DB16931
REMARK                            x       y       z     vdW  Elec       q    Type
REMARK                         _______ _______ _______ _____ _____    ______ ____
ROOT
ATOM      1  C   LIG    1       -1.156   0.835   0.186  0.00  0.00    +0.124 C 
ATOM      2  C   LIG    1       -0.680  -0.310   0.790  0.00  0.00    +0.041 C 
ENDROOT
BRANCH   1   4
ATOM      3  C   LIG    1       -0.608   3.278  -0.232  0.00  0.00    +0.011 C 
ATOM      4  C   LIG    1       -0.254   2.010   0.088  0.00  0.00    +0.046 C 
BRANCH   3   8
ATOM      5  C   LIG    1        1.903   6.756  -0.583  0.00  0.00    +0.162 A 
ATOM      6  C   LIG    1        2.499   5.494  -0.447  0.00  0.00    +0.162 A 
ATOM      7  C   LIG    1        1.683   4.354  -0.333  0.00  0.00    +0.057 A 
ATOM      8  C   LIG    1        0.285   4.452  -0.354  0.00  0.00    -0.021 A 
ATOM      9  C   LIG    1       -0.291   5.716  -0.490  0.00  0.00    +0.012 A 
ATOM     10  C   LIG    1        0.503   6.854  -0.604  0.00  0.00    +0.050 A 
BRANCH   5  12
ATOM     11  C   LIG    1        2.198   9.151  -0.830  0.00  0.00    +0.277 C 
ATOM     12  O   LIG    1        2.749   7.846  -0.691  0.00  0.00    -0.491 OA
ENDBRANCH   5  12
BRANCH   6  13
ATOM     13  O   LIG    1        3.883   5.451  -0.434  0.00  0.00    -0.491 OA
ATOM     14  C   LIG    1        4.546   4.198  -0.296  0.00  0.00    +0.277 C 
ENDBRANCH   6  13
ENDBRANCH   3   8
ENDBRANCH   1   4
BRANCH   2  15
ATOM     15  C   LIG    1        0.665  -0.421   1.399  0.00  0.00    +0.186 C 
ATOM     16  O   LIG    1        0.970   0.264   2.378  0.00  0.00    -0.287 OA
BRANCH  15  17
ATOM     17  C   LIG    1        1.601  -1.355   0.772  0.00  0.00    +0.052 C 
ATOM     18  C   LIG    1        2.814  -1.641   1.293  0.00  0.00    +0.012 C 
BRANCH  18  19
ATOM     19  C   LIG    1        3.819  -2.572   0.733  0.00  0.00    -0.021 A 
ATOM     20  C   LIG    1        3.582  -3.347  -0.409  0.00  0.00    +0.057 A 
ATOM     21  C   LIG    1        4.559  -4.224  -0.914  0.00  0.00    +0.162 A 
ATOM     22  C   LIG    1        5.798  -4.323  -0.263  0.00  0.00    +0.162 A 
ATOM     23  C   LIG    1        6.034  -3.544   0.881  0.00  0.00    +0.050 A 
ATOM     24  C   LIG    1        5.056  -2.682   1.369  0.00  0.00    +0.012 A 
BRANCH  21  25
ATOM     25  O   LIG    1        4.375  -5.013  -2.036  0.00  0.00    -0.491 OA
ATOM     26  C   LIG    1        3.136  -4.963  -2.737  0.00  0.00    +0.277 C 
ENDBRANCH  21  25
BRANCH  22  27
ATOM     27  O   LIG    1        6.725  -5.199  -0.800  0.00  0.00    -0.491 OA
ATOM     28  C   LIG    1        7.998  -5.340  -0.179  0.00  0.00    +0.277 C 
ENDBRANCH  22  27
ENDBRANCH  18  19
ENDBRANCH  15  17
ENDBRANCH   2  15
BRANCH   1  29
ATOM     29  O   LIG    1       -2.353   0.894  -0.298  0.00  0.00    -0.506 OA
ATOM     30  H   LIG    1       -2.656   1.682  -0.704  0.00  0.00    +0.292 HD
ENDBRANCH   1  29
BRANCH   2  31
ATOM     31  C   LIG    1       -1.479  -1.629   0.936  0.00  0.00    +0.046 C 
BRANCH  31  32
ATOM     32  C   LIG    1       -2.024  -1.884   2.356  0.00  0.00    -0.006 C 
ATOM     33  C   LIG    1       -3.127  -0.957   2.885  0.00  0.00    +0.004 C 
ATOM     34  C   LIG    1       -3.704  -2.195   3.593  0.00  0.00    +0.001 C 
ATOM     35  C   LIG    1       -2.983  -3.066   2.550  0.00  0.00    +0.004 C 
ENDBRANCH  31  32
ENDBRANCH   2  31
TORSDOF 12
