REMARK  Name = DB16126
REMARK                            x       y       z     vdW  Elec       q    Type
REMARK                         _______ _______ _______ _____ _____    ______ ____
ROOT
ATOM      1  C   LIG    1        3.041  -0.984   0.204  0.00  0.00    +0.020 C 
ENDROOT
BRANCH   1   2
ATOM      2  C   LIG    1        2.376  -1.348   1.533  0.00  0.00    -0.007 A 
ATOM      3  C   LIG    1        2.575  -0.516   2.640  0.00  0.00    +0.007 A 
ATOM      4  C   LIG    1        1.954  -0.796   3.855  0.00  0.00    +0.000 A 
ATOM      5  C   LIG    1        1.130  -1.912   3.972  0.00  0.00    +0.004 A 
ATOM      6  C   LIG    1        0.929  -2.750   2.876  0.00  0.00    +0.046 A 
ATOM      7  C   LIG    1        1.550  -2.481   1.644  0.00  0.00    +0.124 A 
BRANCH   7   8
ATOM      8  O   LIG    1        1.392  -3.266   0.518  0.00  0.00    -0.487 OA
BRANCH   8   9
ATOM      9  C   LIG    1        0.656  -4.486   0.593  0.00  0.00    +0.264 C 
BRANCH   9  10
ATOM     10  C   LIG    1        0.791  -5.263  -0.711  0.00  0.00    -0.010 A 
ATOM     11  C   LIG    1        1.943  -5.148  -1.497  0.00  0.00    +0.007 A 
ATOM     12  C   LIG    1        2.061  -5.878  -2.676  0.00  0.00    +0.004 A 
ATOM     13  C   LIG    1        1.031  -6.734  -3.072  0.00  0.00    -0.047 A 
ATOM     14  C   LIG    1       -0.120  -6.851  -2.290  0.00  0.00    +0.004 A 
ATOM     15  C   LIG    1       -0.238  -6.119  -1.111  0.00  0.00    +0.007 A 
BRANCH  13  16
ATOM     16  C   LIG    1        1.168  -7.544  -4.353  0.00  0.00    +0.040 C 
BRANCH  16  17
ATOM     17  C   LIG    1        0.464  -6.885  -5.552  0.00  0.00    +0.040 C 
BRANCH  17  18
ATOM     18  C   LIG    1        0.640  -7.673  -6.841  0.00  0.00    -0.047 A 
ATOM     19  C   LIG    1       -0.289  -8.657  -7.189  0.00  0.00    +0.003 A 
ATOM     20  C   LIG    1       -0.125  -9.382  -8.366  0.00  0.00    +0.000 A 
ATOM     21  C   LIG    1        0.967  -9.121  -9.191  0.00  0.00    +0.000 A 
ATOM     22  C   LIG    1        1.897  -8.141  -8.850  0.00  0.00    +0.000 A 
ATOM     23  C   LIG    1        1.734  -7.415  -7.673  0.00  0.00    +0.003 A 
ENDBRANCH  17  18
ENDBRANCH  16  17
ENDBRANCH  13  16
ENDBRANCH   9  10
ENDBRANCH   8   9
ENDBRANCH   7   8
ENDBRANCH   1   2
BRANCH   1  24
ATOM     24  C   LIG    1        2.280   0.097  -0.592  0.00  0.00    -0.074 C 
BRANCH  24  25
ATOM     25  N   LIG    1        0.796  -0.303  -0.805  0.00  0.00    +0.383 N 
ATOM     26  H   LIG    1        0.569  -0.912  -0.031  0.00  0.00    -0.081 HD
BRANCH  25  27
ATOM     27  C   LIG    1        0.590  -1.145  -2.086  0.00  0.00    -0.078 C 
BRANCH  27  28
ATOM     28  C   LIG    1       -0.726  -1.943  -2.012  0.00  0.00    -0.018 C 
BRANCH  28  29
ATOM     29  C   LIG    1       -0.910  -2.893  -3.205  0.00  0.00    +0.009 C 
BRANCH  29  30
ATOM     30  C   LIG    1       -2.235  -3.693  -3.118  0.00  0.00    +0.120 C 
BRANCH  30  31
ATOM     31  C   LIG    1       -2.473  -4.656  -4.304  0.00  0.00    +0.305 C 
ATOM     32  O   LIG    1       -3.124  -5.696  -4.060  0.00  0.00    -0.251 OA
BRANCH  31  33
ATOM     33  O   LIG    1       -2.050  -4.343  -5.441  0.00  0.00    -0.481 OA
ATOM     34  H   LIG    1       -2.319  -3.537  -5.836  0.00  0.00    +0.295 HD
ENDBRANCH  31  33
ENDBRANCH  30  31
ENDBRANCH  29  30
ENDBRANCH  28  29
ENDBRANCH  27  28
ENDBRANCH  25  27
BRANCH  25  35
ATOM     35  C   LIG    1       -0.158   0.907  -0.667  0.00  0.00    -0.043 C 
BRANCH  35  36
ATOM     36  C   LIG    1       -0.286   1.382   0.772  0.00  0.00    -0.064 A 
ATOM     37  C   LIG    1       -0.949   0.586   1.704  0.00  0.00    +0.002 A 
ATOM     38  C   LIG    1       -1.031   0.988   3.033  0.00  0.00    +0.015 A 
ATOM     39  C   LIG    1       -0.455   2.199   3.465  0.00  0.00    +0.059 A 
ATOM     40  C   LIG    1        0.188   2.998   2.499  0.00  0.00    +0.015 A 
ATOM     41  C   LIG    1        0.269   2.598   1.168  0.00  0.00    +0.002 A 
BRANCH  39  42
ATOM     42  C   LIG    1       -0.517   2.622   4.919  0.00  0.00    +0.337 C 
ATOM     43  O   LIG    1       -1.106   1.879   5.740  0.00  0.00    -0.245 OA
BRANCH  42  44
ATOM     44  O   LIG    1        0.027   3.700   5.259  0.00  0.00    -0.477 OA
ATOM     45  H   LIG    1       -0.002   3.978   6.153  0.00  0.00    +0.295 HD
ENDBRANCH  42  44
ENDBRANCH  39  42
ENDBRANCH  35  36
ENDBRANCH  25  35
ENDBRANCH  24  25
ENDBRANCH   1  24
TORSDOF 19
