REMARK  Name = DB16192
REMARK                            x       y       z     vdW  Elec       q    Type
REMARK                         _______ _______ _______ _____ _____    ______ ____
ROOT
ATOM      1  C   LIG    1        1.447  -0.025   0.062  0.00  0.00    +0.119 A 
ATOM      2  C   LIG    1        2.190   0.812   0.928  0.00  0.00    +0.102 A 
ATOM      3  N   LIG    1        3.551   0.783   0.910  0.00  0.00    -0.211 NA
ATOM      4  C   LIG    1        4.130  -0.097   0.063  0.00  0.00    +0.233 A 
ATOM      5  N   LIG    1        3.459  -0.945  -0.753  0.00  0.00    -0.113 NA
ATOM      6  N   LIG    1        2.115  -0.904  -0.744  0.00  0.00    -0.144 NA
ENDROOT
BRANCH   1  10
ATOM      7  C   LIG    1       -3.082   2.277   0.089  0.00  0.00    +0.065 C 
ATOM      8  C   LIG    1       -2.209   1.046  -0.058  0.00  0.00    +0.041 A 
ATOM      9  C   LIG    1       -0.819   1.116   0.069  0.00  0.00    +0.033 A 
ATOM     10  C   LIG    1       -0.048  -0.049  -0.066  0.00  0.00    +0.009 A 
ATOM     11  C   LIG    1       -0.732  -1.242  -0.358  0.00  0.00    +0.050 A 
ATOM     12  C   LIG    1       -2.124  -1.240  -0.472  0.00  0.00    +0.130 A 
ATOM     13 CL   LIG    1       -2.943  -2.720  -0.815  0.00  0.00    -0.062 Cl
ATOM     14  N   LIG    1       -2.863  -0.113  -0.321  0.00  0.00    -0.240 NA
ENDBRANCH   1  10
BRANCH   2  15
ATOM     15  C   LIG    1        1.610   1.716   1.962  0.00  0.00    +0.003 A 
ATOM     16  C   LIG    1        0.681   1.227   2.889  0.00  0.00    +0.013 A 
ATOM     17  C   LIG    1        0.133   2.068   3.854  0.00  0.00    +0.039 A 
ATOM     18  C   LIG    1        0.518   3.405   3.901  0.00  0.00    +0.123 A 
ATOM     19  F   LIG    1       -0.014   4.223   4.837  0.00  0.00    -0.205 F 
ATOM     20  C   LIG    1        1.447   3.905   2.993  0.00  0.00    +0.039 A 
ATOM     21  C   LIG    1        1.992   3.062   2.028  0.00  0.00    +0.013 A 
ENDBRANCH   2  15
BRANCH   4  22
ATOM     22  N   LIG    1        5.521  -0.144   0.034  0.00  0.00    -0.326 N 
ATOM     23  H   LIG    1        5.982  -0.798  -0.582  0.00  0.00    +0.145 HD
ATOM     24  H   LIG    1        6.050   0.468   0.638  0.00  0.00    +0.145 HD
ENDBRANCH   4  22
TORSDOF 3
