REMARK  Name = DB16955
REMARK                            x       y       z     vdW  Elec       q    Type
REMARK                         _______ _______ _______ _____ _____    ______ ____
ROOT
ATOM      1  C   LIG    1        1.474  -1.721   0.696  0.00  0.00    +0.009 C 
ENDROOT
BRANCH   1   2
ATOM      2  C   LIG    1        0.947  -0.312   1.023  0.00  0.00    +0.002 C 
BRANCH   2   3
ATOM      3  C   LIG    1       -0.526  -0.110   0.621  0.00  0.00    +0.019 C 
BRANCH   3   4
ATOM      4  C   LIG    1       -1.040   1.310   0.927  0.00  0.00    +0.104 C 
BRANCH   4   6
ATOM      5  C   LIG    1       -2.981   1.656  -0.604  0.00  0.00    +0.244 C 
ATOM      6  N   LIG    1       -2.458   1.505   0.629  0.00  0.00    -0.311 N 
ATOM      7  H   LIG    1       -3.081   1.534   1.423  0.00  0.00    +0.149 HD
ATOM      8  O   LIG    1       -2.295   1.628  -1.628  0.00  0.00    -0.270 OA
BRANCH   5  13
ATOM      9  C   LIG    1       -8.759   2.370  -0.977  0.00  0.00    +0.044 C 
ATOM     10  C   LIG    1       -7.258   2.173  -0.868  0.00  0.00    -0.050 A 
ATOM     11  C   LIG    1       -6.603   2.446   0.333  0.00  0.00    +0.004 A 
ATOM     12  C   LIG    1       -5.224   2.278   0.427  0.00  0.00    +0.013 A 
ATOM     13  C   LIG    1       -4.482   1.837  -0.680  0.00  0.00    +0.037 A 
ATOM     14  C   LIG    1       -5.152   1.576  -1.884  0.00  0.00    +0.013 A 
ATOM     15  C   LIG    1       -6.531   1.743  -1.978  0.00  0.00    +0.004 A 
ENDBRANCH   5  13
ENDBRANCH   4   6
ENDBRANCH   3   4
ENDBRANCH   2   3
ENDBRANCH   1   2
BRANCH   1  16
ATOM     16  C   LIG    1        2.949  -1.914   1.113  0.00  0.00    +0.096 C 
BRANCH  16  17
ATOM     17  C   LIG    1        3.514  -3.311   0.808  0.00  0.00    +0.217 C 
ATOM     18  N   LIG    1        4.541  -3.702   1.592  0.00  0.00    -0.284 N 
ATOM     19  H   LIG    1        4.907  -3.020   2.239  0.00  0.00    +0.155 HD
ATOM     20  O   LIG    1        3.053  -3.977  -0.121  0.00  0.00    -0.275 OA
BRANCH  18  21
ATOM     21  C   LIG    1        5.256  -4.918   1.537  0.00  0.00    +0.054 A 
ATOM     22  C   LIG    1        6.628  -4.927   1.860  0.00  0.00    +0.046 A 
ATOM     23  C   LIG    1        7.343  -6.127   1.828  0.00  0.00    +0.024 A 
ATOM     24  C   LIG    1        6.708  -7.321   1.492  0.00  0.00    +0.002 A 
ATOM     25  C   LIG    1        5.349  -7.324   1.190  0.00  0.00    +0.002 A 
ATOM     26  C   LIG    1        4.624  -6.133   1.217  0.00  0.00    +0.025 A 
BRANCH  22  27
ATOM     27  N   LIG    1        7.319  -3.761   2.208  0.00  0.00    -0.357 N 
ATOM     28  H   LIG    1        6.795  -3.074   2.730  0.00  0.00    +0.142 HD
ATOM     29  H   LIG    1        8.299  -3.877   2.424  0.00  0.00    +0.142 HD
ENDBRANCH  22  27
ENDBRANCH  18  21
ENDBRANCH  16  17
ENDBRANCH   1  16
TORSDOF 9
