REMARK  Name = DB16074
REMARK                            x       y       z     vdW  Elec       q    Type
REMARK                         _______ _______ _______ _____ _____    ______ ____
ROOT
ATOM      1  C   LIG    1        1.923  -0.472   0.414  0.00  0.00    +0.152 A 
ATOM      2  N   LIG    1        2.717  -0.665   1.508  0.00  0.00    -0.215 NA
ATOM      3  C   LIG    1        4.064  -0.622   1.341  0.00  0.00    +0.131 A 
ATOM      4  C   LIG    1        4.908  -0.826   2.586  0.00  0.00    +0.088 C 
ATOM      5  N   LIG    1        4.750  -0.420   0.187  0.00  0.00    -0.213 NA
ATOM      6  C   LIG    1        3.955  -0.264  -0.880  0.00  0.00    +0.166 A 
ATOM      7  N   LIG    1        4.300  -0.054  -2.210  0.00  0.00    -0.305 N 
ATOM      8  C   LIG    1        3.090   0.008  -2.893  0.00  0.00    +0.145 A 
ATOM      9  N   LIG    1        2.042  -0.130  -2.116  0.00  0.00    -0.222 NA
ATOM     10  C   LIG    1        2.537  -0.284  -0.851  0.00  0.00    +0.148 A 
ENDROOT
BRANCH   1  16
ATOM     11  C   LIG    1       -1.462   2.755   2.696  0.00  0.00    -0.096 C 
ATOM     12  N   LIG    1       -1.234   1.431   1.943  0.00  0.00    +0.380 N 
ATOM     13  H   LIG    1       -2.117   0.955   1.820  0.00  0.00    -0.082 HD
ATOM     14  C   LIG    1       -0.622   1.689   0.552  0.00  0.00    -0.060 C 
ATOM     15  C   LIG    1       -0.400   0.328  -0.147  0.00  0.00    +0.088 C 
ATOM     16  N   LIG    1        0.535  -0.546   0.592  0.00  0.00    -0.317 N 
ATOM     17  C   LIG    1       -0.075  -0.791   1.918  0.00  0.00    +0.088 C 
ATOM     18  C   LIG    1       -0.287   0.505   2.733  0.00  0.00    -0.060 C 
ENDBRANCH   1  16
BRANCH   8  19
ATOM     19  C   LIG    1        2.946   0.203  -4.367  0.00  0.00    +0.036 A 
ATOM     20  C   LIG    1        2.297   1.322  -4.917  0.00  0.00    +0.052 A 
ATOM     21 CL   LIG    1        1.647   2.575  -3.915  0.00  0.00    -0.083 Cl
ATOM     22  C   LIG    1        2.178   1.448  -6.303  0.00  0.00    +0.021 A 
ATOM     23  C   LIG    1        2.700   0.469  -7.147  0.00  0.00    +0.001 A 
ATOM     24  C   LIG    1        3.344  -0.643  -6.608  0.00  0.00    +0.001 A 
ATOM     25  C   LIG    1        3.463  -0.777  -5.225  0.00  0.00    +0.013 A 
ENDBRANCH   8  19
BRANCH   7  26
ATOM     26  C   LIG    1        5.651   0.084  -2.793  0.00  0.00    +0.095 C 
ATOM     27  C   LIG    1        6.384   1.283  -2.144  0.00  0.00    +0.053 C 
ATOM     28  C   LIG    1        7.874   1.297  -2.536  0.00  0.00    +0.162 C 
ATOM     29  O   LIG    1        8.471   0.040  -2.219  0.00  0.00    -0.380 OA
ATOM     30  C   LIG    1        7.923  -1.056  -2.950  0.00  0.00    +0.162 C 
ATOM     31  C   LIG    1        6.434  -1.236  -2.593  0.00  0.00    +0.053 C 
ENDBRANCH   7  26
TORSDOF 3
