REMARK  Name = DB16160
REMARK                            x       y       z     vdW  Elec       q    Type
REMARK                         _______ _______ _______ _____ _____    ______ ____
ROOT
ATOM      1  C   LIG    1        1.632  -0.011   0.626  0.00  0.00    +0.234 C 
ATOM      2  N   LIG    1        2.145  -1.210   1.018  0.00  0.00    -0.268 N 
ATOM      3  C   LIG    1        3.497  -1.588   1.091  0.00  0.00    +0.058 A 
ATOM      4  C   LIG    1        4.680  -0.876   0.855  0.00  0.00    +0.031 A 
ATOM      5  C   LIG    1        5.918  -1.515   1.004  0.00  0.00    -0.018 A 
ATOM      6  CA  LIG    1        5.922  -2.864   1.417  0.00  0.00    +0.070 A 
ATOM      7  N   LIG    1        4.776  -3.555   1.660  0.00  0.00    -0.251 NA
ATOM      8  C   LIG    1        3.591  -2.913   1.494  0.00  0.00    +0.070 A 
ATOM      9  C   LIG    1        2.229  -3.524   1.714  0.00  0.00    +0.025 C 
ATOM     10  C   LIG    1        1.970  -4.685   0.730  0.00  0.00    +0.019 C 
ATOM     11  C   LIG    1        2.056  -4.007   3.171  0.00  0.00    +0.019 C 
ATOM     12  C   LIG    1        1.288  -2.336   1.417  0.00  0.00    +0.126 C 
ATOM     13  O   LIG    1        2.351   0.929   0.276  0.00  0.00    -0.274 OA
ENDROOT
BRANCH   1  14
ATOM     14  C   LIG    1        0.085   0.152   0.602  0.00  0.00    +0.181 C 
BRANCH  14  22
ATOM     15  C   LIG    1       -1.179   3.454   3.570  0.00  0.00    -0.012 C 
ATOM     16  C   LIG    1       -1.219   2.322   2.530  0.00  0.00    -0.061 C 
ATOM     17  N   LIG    1       -2.639   2.321   1.929  0.00  0.00    +0.383 N 
ATOM     18  H   LIG    1       -2.866   3.264   1.647  0.00  0.00    -0.085 HD
ATOM     19  H   LIG    1       -3.308   2.061   2.640  0.00  0.00    -0.085 HD
ATOM     20  C   LIG    1       -2.792   1.390   0.711  0.00  0.00    -0.062 C 
ATOM     21  C   LIG    1       -1.672   1.681  -0.327  0.00  0.00    +0.054 C 
ATOM     22  N   LIG    1       -0.336   1.535   0.285  0.00  0.00    -0.293 NA
ATOM     23  C   LIG    1       -0.164   2.481   1.402  0.00  0.00    +0.069 C 
BRANCH  21  24
ATOM     24  C   LIG    1       -1.879   0.913  -1.658  0.00  0.00    +0.101 C 
BRANCH  24  25
ATOM     25  N   LIG    1       -3.079   1.401  -2.357  0.00  0.00    -0.294 NA
ATOM     26  C   LIG    1       -2.778   2.090  -3.630  0.00  0.00    +0.079 C 
ATOM     27  C   LIG    1       -1.887   3.344  -3.496  0.00  0.00    +0.026 C 
ATOM     28  C   LIG    1       -4.095   2.479  -4.356  0.00  0.00    +0.178 C 
ATOM     29  O   LIG    1       -4.980   1.371  -4.472  0.00  0.00    -0.377 OA
ATOM     30  C   LIG    1       -5.330   0.815  -3.214  0.00  0.00    +0.175 C 
ATOM     31  C   LIG    1       -4.058   0.317  -2.507  0.00  0.00    +0.113 C 
ENDBRANCH  24  25
ENDBRANCH  21  24
ENDBRANCH  14  22
ENDBRANCH   1  14
BRANCH   6  32
ATOM     32  C   LIG    1        7.200  -3.671   1.629  0.00  0.00    +0.211 C 
BRANCH  32  33
ATOM     33  O   LIG    1        7.870  -3.971   0.422  0.00  0.00    -0.389 OA
ATOM     34  H   LIG    1        8.621  -4.535   0.621  0.00  0.00    +0.210 HD
ENDBRANCH  32  33
ENDBRANCH   6  32
BRANCH   5  35
ATOM     35  C   LIG    1        7.194  -0.719   0.726  0.00  0.00    +0.072 C 
BRANCH  35  36
ATOM     36  C   LIG    1        7.303  -0.197  -0.703  0.00  0.00    -0.043 A 
ATOM     37  C   LIG    1        7.341  -1.096  -1.773  0.00  0.00    +0.007 A 
ATOM     38  C   LIG    1        7.443  -0.622  -3.078  0.00  0.00    +0.038 A 
ATOM     39  C   LIG    1        7.510   0.750  -3.311  0.00  0.00    +0.123 A 
ATOM     40  F   LIG    1        7.608   1.211  -4.579  0.00  0.00    -0.205 F 
ATOM     41  C   LIG    1        7.478   1.651  -2.249  0.00  0.00    +0.038 A 
ATOM     42  C   LIG    1        7.377   1.178  -0.943  0.00  0.00    +0.007 A 
ENDBRANCH  35  36
ENDBRANCH   5  35
TORSDOF 8
