REMARK  Name = DB16261
REMARK                            x       y       z     vdW  Elec       q    Type
REMARK                         _______ _______ _______ _____ _____    ______ ____
ROOT
ATOM      1  O   LIG    1       -3.365  -3.288   2.033  0.00  0.00    -0.153 OA
ATOM      2  S   LIG    1       -3.452  -3.434   0.576  0.00  0.00    +0.061 S 
ATOM      3  O   LIG    1       -3.131  -4.725  -0.043  0.00  0.00    -0.153 OA
ATOM      4  C   LIG    1       -2.279  -2.248  -0.111  0.00  0.00    +0.130 A 
ATOM      5  C   LIG    1       -0.958  -2.706  -0.158  0.00  0.00    +0.077 A 
ATOM      6  C   LIG    1        0.067  -1.922  -0.694  0.00  0.00    +0.137 A 
ATOM      7  C   LIG    1       -0.248  -0.658  -1.198  0.00  0.00    +0.051 A 
ATOM      8  C   LIG    1       -1.559  -0.192  -1.138  0.00  0.00    +0.043 A 
ATOM      9  C   LIG    1       -2.605  -0.957  -0.594  0.00  0.00    +0.062 A 
ATOM     10  N   LIG    1       -3.909  -0.412  -0.566  0.00  0.00    -0.297 N 
ATOM     11  C   LIG    1       -4.730  -0.644   0.638  0.00  0.00    +0.134 C 
ATOM     12  C   LIG    1       -5.762  -1.807   0.563  0.00  0.00    +0.056 C 
ATOM     13  N   LIG    1       -5.097  -3.039   0.061  0.00  0.00    -0.182 NA
ATOM     14  H   LIG    1       -5.201  -3.110  -0.954  0.00  0.00    +0.149 HD
ENDROOT
BRANCH  10  15
ATOM     15  C   LIG    1       -4.439   0.383  -1.613  0.00  0.00    +0.034 A 
ATOM     16  C   LIG    1       -4.071   0.121  -2.944  0.00  0.00    +0.023 A 
ATOM     17  C   LIG    1       -4.571   0.882  -3.996  0.00  0.00    +0.002 A 
ATOM     18  C   LIG    1       -5.447   1.928  -3.732  0.00  0.00    +0.000 A 
ATOM     19  C   LIG    1       -5.822   2.218  -2.425  0.00  0.00    +0.002 A 
ATOM     20  C   LIG    1       -5.320   1.454  -1.375  0.00  0.00    +0.023 A 
ENDBRANCH  10  15
BRANCH   7  21
ATOM     21  S   LIG    1        0.999   0.406  -1.878  0.00  0.00    -0.125 S 
ATOM     22  C   LIG    1        1.822  -0.521  -3.202  0.00  0.00    +0.090 C 
ENDBRANCH   7  21
BRANCH   6  23
ATOM     23  O   LIG    1        1.370  -2.363  -0.772  0.00  0.00    -0.482 OA
BRANCH  23  24
ATOM     24  C   LIG    1        1.883  -3.214   0.256  0.00  0.00    +0.324 C 
BRANCH  24  25
ATOM     25  C   LIG    1        3.380  -2.932   0.456  0.00  0.00    +0.251 C 
ATOM     26  N   LIG    1        3.913  -1.890  -0.210  0.00  0.00    -0.298 N 
ATOM     27  H   LIG    1        3.312  -1.377  -0.839  0.00  0.00    +0.150 HD
ATOM     28  O   LIG    1        4.037  -3.651   1.209  0.00  0.00    -0.272 OA
BRANCH  26  29
ATOM     29  CA  LIG    1        5.326  -1.491  -0.243  0.00  0.00    +0.190 C 
BRANCH  29  30
ATOM     30  C   LIG    1        5.343   0.004  -0.490  0.00  0.00    -0.018 A 
ATOM     31  C   LIG    1        5.215   0.537  -1.782  0.00  0.00    +0.009 A 
ATOM     32  C   LIG    1        5.229   1.914  -1.980  0.00  0.00    +0.046 A 
ATOM     33  C   LIG    1        5.373   2.767  -0.888  0.00  0.00    +0.117 A 
ATOM     34  C   LIG    1        5.502   2.251   0.400  0.00  0.00    +0.046 A 
ATOM     35  C   LIG    1        5.486   0.873   0.597  0.00  0.00    +0.009 A 
BRANCH  33  36
ATOM     36  O   LIG    1        5.387   4.123  -1.081  0.00  0.00    -0.507 OA
ATOM     37  H   LIG    1        5.286   4.370  -2.003  0.00  0.00    +0.292 HD
ENDBRANCH  33  36
ENDBRANCH  29  30
BRANCH  29  38
ATOM     38  C   LIG    1        6.170  -2.316  -1.251  0.00  0.00    +0.239 C 
ATOM     39  N   LIG    1        7.489  -2.056  -1.243  0.00  0.00    -0.301 N 
ATOM     40  H   LIG    1        7.850  -1.371  -0.596  0.00  0.00    +0.150 HD
ATOM     41  O   LIG    1        5.636  -3.130  -2.007  0.00  0.00    -0.273 OA
BRANCH  39  42
ATOM     42  CA  LIG    1        8.487  -2.701  -2.103  0.00  0.00    +0.181 C 
BRANCH  42  43
ATOM     43  C   LIG    1        8.713  -4.183  -1.740  0.00  0.00    +0.325 C 
ATOM     44  O   LIG    1        8.609  -5.087  -2.543  0.00  0.00    -0.249 OA
BRANCH  43  45
ATOM     45  OXT LIG    1        9.034  -4.315  -0.418  0.00  0.00    -0.479 OA
ATOM     46  HXT LIG    1        9.169  -5.231  -0.166  0.00  0.00    +0.295 HD
ENDBRANCH  43  45
ENDBRANCH  42  43
BRANCH  42  47
ATOM     47  C   LIG    1        9.822  -1.926  -2.106  0.00  0.00    +0.030 C 
ATOM     48  C   LIG    1        9.689  -0.482  -2.617  0.00  0.00    +0.006 C 
ENDBRANCH  42  47
ENDBRANCH  39  42
ENDBRANCH  29  38
ENDBRANCH  26  29
ENDBRANCH  24  25
ENDBRANCH  23  24
ENDBRANCH   6  23
BRANCH  12  49
ATOM     49  C   LIG    1       -6.337  -2.094   1.988  0.00  0.00    +0.025 C 
BRANCH  49  50
ATOM     50  C   LIG    1       -7.199  -0.976   2.618  0.00  0.00    +0.002 C 
BRANCH  50  51
ATOM     51  C   LIG    1       -7.712  -1.341   4.022  0.00  0.00    -0.003 C 
ATOM     52  C   LIG    1       -8.576  -0.237   4.648  0.00  0.00    +0.004 C 
ENDBRANCH  50  51
ENDBRANCH  49  50
ENDBRANCH  12  49
BRANCH  12  53
ATOM     53  C   LIG    1       -6.903  -1.465  -0.447  0.00  0.00    +0.025 C 
BRANCH  53  54
ATOM     54  C   LIG    1       -8.054  -2.491  -0.566  0.00  0.00    +0.002 C 
BRANCH  54  55
ATOM     55  C   LIG    1       -9.082  -2.106  -1.645  0.00  0.00    -0.003 C 
ATOM     56  C   LIG    1      -10.233  -3.114  -1.762  0.00  0.00    +0.004 C 
ENDBRANCH  54  55
ENDBRANCH  53  54
ENDBRANCH  12  53
TORSDOF 19
