REMARK  Name = DB16164
REMARK                            x       y       z     vdW  Elec       q    Type
REMARK                         _______ _______ _______ _____ _____    ______ ____
ROOT
ATOM      1  C   LIG    1        1.394   0.235   0.227  0.00  0.00    +0.168 C 
ATOM      2  N   LIG    1        2.062  -0.842   0.215  0.00  0.00    -0.092 NA
ENDROOT
BRANCH   1   6
ATOM      3  C   LIG    1       -3.452  -1.079  -0.174  0.00  0.00    +0.176 C 
ATOM      4  N   LIG    1       -2.199  -0.358  -0.027  0.00  0.00    -0.235 N 
ATOM      5  C   LIG    1       -0.927  -0.860   0.031  0.00  0.00    +0.228 A 
ATOM      6  C   LIG    1       -0.064   0.230   0.130  0.00  0.00    +0.080 A 
ATOM      7  C   LIG    1       -0.945   1.338   0.098  0.00  0.00    +0.072 A 
ATOM      8  C   LIG    1       -0.634   2.820   0.163  0.00  0.00    +0.068 C 
ATOM      9  N   LIG    1       -2.208   0.976  -0.011  0.00  0.00    -0.173 NA
BRANCH   5  10
ATOM     10  O   LIG    1       -0.649  -2.203   0.018  0.00  0.00    -0.438 OA
BRANCH  10  11
ATOM     11  C   LIG    1       -0.629  -2.909  -1.168  0.00  0.00    +0.130 A 
ATOM     12  C   LIG    1       -0.771  -2.318  -2.435  0.00  0.00    +0.046 A 
ATOM     13  C   LIG    1       -0.728  -3.104  -3.583  0.00  0.00    +0.004 A 
ATOM     14  C   LIG    1       -0.542  -4.479  -3.472  0.00  0.00    +0.000 A 
ATOM     15  C   LIG    1       -0.397  -5.076  -2.222  0.00  0.00    +0.004 A 
ATOM     16  C   LIG    1       -0.439  -4.289  -1.074  0.00  0.00    +0.046 A 
ENDBRANCH  10  11
ENDBRANCH   5  10
ENDBRANCH   1   6
BRANCH   2  17
ATOM     17  O   LIG    1        3.430  -0.541   0.305  0.00  0.00    -0.389 OA
BRANCH  17  18
ATOM     18  C   LIG    1        4.173  -1.755   0.271  0.00  0.00    +0.298 C 
BRANCH  18  19
ATOM     19  C   LIG    1        5.673  -1.489   0.354  0.00  0.00    -0.008 A 
ATOM     20  C   LIG    1        6.558  -2.492  -0.045  0.00  0.00    +0.008 A 
ATOM     21  C   LIG    1        7.932  -2.285   0.027  0.00  0.00    +0.015 A 
ATOM     22  C   LIG    1        8.447  -1.072   0.504  0.00  0.00    +0.059 A 
ATOM     23  C   LIG    1        7.551  -0.069   0.908  0.00  0.00    +0.015 A 
ATOM     24  C   LIG    1        6.176  -0.277   0.835  0.00  0.00    +0.008 A 
BRANCH  22  25
ATOM     25  C   LIG    1        9.935  -0.883   0.573  0.00  0.00    +0.340 C 
ATOM     26  O   LIG    1       10.741  -1.747   0.219  0.00  0.00    -0.245 OA
BRANCH  25  27
ATOM     27  O   LIG    1       10.297   0.342   1.070  0.00  0.00    -0.455 OA
BRANCH  27  28
ATOM     28  C   LIG    1       11.646   0.805   1.261  0.00  0.00    +0.106 C 
ATOM     29  C   LIG    1       11.482   2.228   1.834  0.00  0.00    +0.055 C 
ATOM     30  C   LIG    1       12.404  -0.075   2.286  0.00  0.00    +0.055 C 
ATOM     31  C   LIG    1       12.414   0.880  -0.082  0.00  0.00    +0.055 C 
ENDBRANCH  27  28
ENDBRANCH  25  27
ENDBRANCH  22  25
ENDBRANCH  18  19
ENDBRANCH  17  18
ENDBRANCH   2  17
TORSDOF 9
