REMARK  Name = DB16331
REMARK                            x       y       z     vdW  Elec       q    Type
REMARK                         _______ _______ _______ _____ _____    ______ ____
ROOT
ATOM      1  C   LIG    1        1.457   0.081  -0.243  0.00  0.00    +0.149 A 
ATOM      2  N   LIG    1        2.229   0.897   0.580  0.00  0.00    -0.322 N 
ATOM      3  C   LIG    1        3.515   0.588   0.204  0.00  0.00    +0.077 A 
ATOM      4  C   LIG    1        4.926   0.929   0.508  0.00  0.00    +0.161 C 
ATOM      5  N   LIG    1        5.583  -0.044  -0.383  0.00  0.00    -0.248 N 
ATOM      6  C   LIG    1        4.737  -0.781  -1.171  0.00  0.00    +0.272 C 
ATOM      7  O   LIG    1        5.032  -1.620  -2.023  0.00  0.00    -0.268 OA
ATOM      8  C   LIG    1        3.432  -0.366  -0.747  0.00  0.00    +0.150 A 
ATOM      9  N   LIG    1        2.187  -0.679  -1.042  0.00  0.00    -0.222 NA
ENDROOT
BRANCH   5  10
ATOM     10  C   LIG    1        6.951  -0.181  -0.407  0.00  0.00    +0.104 A 
ATOM     11  C   LIG    1        7.621  -0.790   0.763  0.00  0.00    +0.273 A 
ATOM     12  O   LIG    1        6.983  -1.195   1.740  0.00  0.00    -0.266 OA
ATOM     13  N   LIG    1        9.000  -0.866   0.668  0.00  0.00    -0.315 N 
ATOM     14  C   LIG    1        9.740  -1.454   1.793  0.00  0.00    +0.152 C 
ATOM     15  C   LIG    1        9.662  -0.409  -0.450  0.00  0.00    +0.108 A 
ATOM     16  C   LIG    1        9.085   0.143  -1.533  0.00  0.00    +0.059 A 
ATOM     17 CL   LIG    1       10.028   0.694  -2.920  0.00  0.00    -0.082 Cl
ATOM     18  C   LIG    1        7.641   0.259  -1.493  0.00  0.00    +0.050 A 
ENDBRANCH   5  10
BRANCH   4  19
ATOM     19  C   LIG    1        5.321   2.377   0.211  0.00  0.00    -0.021 A 
ATOM     20  C   LIG    1        4.923   3.007  -0.974  0.00  0.00    +0.007 A 
ATOM     21  C   LIG    1        5.289   4.327  -1.219  0.00  0.00    +0.020 A 
ATOM     22  C   LIG    1        6.055   5.017  -0.281  0.00  0.00    +0.041 A 
ATOM     23 CL   LIG    1        6.508   6.655  -0.583  0.00  0.00    -0.084 Cl
ATOM     24  C   LIG    1        6.457   4.395   0.900  0.00  0.00    +0.020 A 
ATOM     25  C   LIG    1        6.090   3.075   1.145  0.00  0.00    +0.007 A 
ENDBRANCH   4  19
BRANCH   1  29
ATOM     26  C   LIG    1       -2.758  -0.037  -0.258  0.00  0.00    +0.321 A 
ATOM     27  N   LIG    1       -2.164   1.172  -0.405  0.00  0.00    -0.202 NA
ATOM     28  C   LIG    1       -0.807   1.181  -0.396  0.00  0.00    +0.133 A 
ATOM     29  C   LIG    1       -0.036   0.021  -0.239  0.00  0.00    +0.097 A 
ATOM     30  C   LIG    1       -0.742  -1.186  -0.100  0.00  0.00    +0.231 A 
ATOM     31  N   LIG    1       -2.107  -1.226  -0.106  0.00  0.00    -0.159 NA
BRANCH  26  33
ATOM     32  C   LIG    1       -4.871  -1.217  -0.115  0.00  0.00    +0.280 C 
ATOM     33  O   LIG    1       -4.140  -0.002  -0.267  0.00  0.00    -0.466 OA
ENDBRANCH  26  33
BRANCH  30  34
ATOM     34  O   LIG    1       -0.039  -2.369   0.063  0.00  0.00    -0.479 OA
ATOM     35  C   LIG    1       -0.745  -3.599   0.209  0.00  0.00    +0.279 C 
ENDBRANCH  30  34
ENDBRANCH   1  29
BRANCH   2  36
ATOM     36  C   LIG    1        1.786   1.835   1.621  0.00  0.00    +0.083 C 
ATOM     37  C   LIG    1        2.522   1.574   2.950  0.00  0.00    +0.030 C 
ATOM     38  C   LIG    1        1.930   3.292   1.141  0.00  0.00    +0.030 C 
ENDBRANCH   2  36
TORSDOF 6
