REMARK  Name = DB16827
REMARK                            x       y       z     vdW  Elec       q    Type
REMARK                         _______ _______ _______ _____ _____    ______ ____
ROOT
ATOM      1  C   LIG    1        0.034  -0.232   0.612  0.00  0.00    +0.182 C 
ENDROOT
BRANCH   1   2
ATOM      2  O   LIG    1       -0.336   1.134   0.741  0.00  0.00    -0.376 OA
ATOM      3  H   LIG    1        0.243   1.658   0.183  0.00  0.00    +0.211 HD
ENDBRANCH   1   2
BRANCH   1   4
ATOM      4  C   LIG    1       -0.994  -1.030   1.464  0.00  0.00    +0.340 C 
ATOM      5  O   LIG    1       -0.646  -1.761   2.396  0.00  0.00    -0.248 OA
BRANCH   4   6
ATOM      6  O   LIG    1       -2.280  -0.837   1.073  0.00  0.00    -0.463 OA
BRANCH   6   7
ATOM      7  C   LIG    1       -3.350  -1.490   1.743  0.00  0.00    +0.229 C 
ATOM      8  C   LIG    1       -4.677  -1.092   1.089  0.00  0.00    +0.048 C 
ENDBRANCH   6   7
ENDBRANCH   4   6
ENDBRANCH   1   4
BRANCH   1   9
ATOM      9  C   LIG    1       -0.116  -0.623  -0.898  0.00  0.00    +0.167 C 
BRANCH   9  10
ATOM     10  C   LIG    1        0.793   0.081  -1.922  0.00  0.00    +0.310 C 
ATOM     11  O   LIG    1        1.437   1.098  -1.652  0.00  0.00    -0.251 OA
BRANCH  10  12
ATOM     12  O   LIG    1        0.784  -0.552  -3.112  0.00  0.00    -0.465 OA
BRANCH  12  13
ATOM     13  C   LIG    1        1.569  -0.071  -4.196  0.00  0.00    +0.229 C 
ATOM     14  C   LIG    1        1.325  -0.944  -5.431  0.00  0.00    +0.048 C 
ENDBRANCH  12  13
ENDBRANCH  10  12
ENDBRANCH   9  10
ENDBRANCH   1   9
BRANCH   1  15
ATOM     15  C   LIG    1        1.495  -0.313   1.175  0.00  0.00    +0.167 C 
BRANCH  15  16
ATOM     16  C   LIG    1        2.256  -1.646   1.041  0.00  0.00    +0.310 C 
ATOM     17  O   LIG    1        1.753  -2.655   0.541  0.00  0.00    -0.251 OA
BRANCH  16  18
ATOM     18  O   LIG    1        3.508  -1.552   1.531  0.00  0.00    -0.465 OA
BRANCH  18  19
ATOM     19  C   LIG    1        4.382  -2.673   1.511  0.00  0.00    +0.229 C 
ATOM     20  C   LIG    1        5.728  -2.282   2.128  0.00  0.00    +0.048 C 
ENDBRANCH  18  19
ENDBRANCH  16  18
ENDBRANCH  15  16
ENDBRANCH   1  15
TORSDOF 12
