REMARK  Name = DB16876
REMARK                            x       y       z     vdW  Elec       q    Type
REMARK                         _______ _______ _______ _____ _____    ______ ____
ROOT
ATOM      1  C   LIG    1        1.395  -0.015   0.002  0.00  0.00    +0.062 C 
ATOM      2  C   LIG    1        2.044   1.234  -0.029  0.00  0.00    +0.062 C 
ATOM      3  C   LIG    1        3.443   1.309  -0.089  0.00  0.00    +0.126 C 
ATOM      4  N   LIG    1        4.139   0.160  -0.149  0.00  0.00    -0.288 NA
ATOM      5  H   LIG    1        5.146   0.217  -0.210  0.00  0.00    +0.124 HD
ATOM      6  C   LIG    1        3.574  -1.061  -0.121  0.00  0.00    +0.091 C 
ATOM      7  C   LIG    1        2.181  -1.189  -0.037  0.00  0.00    +0.120 C 
ENDROOT
BRANCH   7   8
ATOM      8  C   LIG    1        1.554  -2.589   0.002  0.00  0.00    +0.400 C 
ATOM      9  F   LIG    1        2.469  -3.560  -0.036  0.00  0.00    -0.170 F 
ATOM     10  F   LIG    1        0.742  -2.751  -1.044  0.00  0.00    -0.170 F 
ATOM     11  F   LIG    1        0.846  -2.738   1.122  0.00  0.00    -0.170 F 
ENDBRANCH   7   8
BRANCH   1  12
ATOM     12  N   LIG    1       -0.009  -0.118   0.069  0.00  0.00    -0.305 NA
ATOM     13  H   LIG    1       -0.402  -1.020  -0.159  0.00  0.00    +0.123 HD
BRANCH  12  14
ATOM     14  C   LIG    1       -0.885   1.039  -0.090  0.00  0.00    +0.111 C 
BRANCH  14  20
ATOM     15  C   LIG    1       -5.051   1.254   1.104  0.00  0.00    -0.054 C 
ATOM     16  N   LIG    1       -4.271   0.007   1.558  0.00  0.00    +0.382 N 
ATOM     17  H   LIG    1       -4.543  -0.773   0.977  0.00  0.00    -0.086 HD
ATOM     18  H   LIG    1       -4.525  -0.230   2.507  0.00  0.00    -0.086 HD
ATOM     19  C   LIG    1       -2.746   0.191   1.455  0.00  0.00    -0.049 C 
ATOM     20  C   LIG    1       -2.381   0.699   0.038  0.00  0.00    +0.115 C 
ATOM     21  O   LIG    1       -3.122   1.884  -0.247  0.00  0.00    -0.379 OA
ATOM     22  C   LIG    1       -4.535   1.704  -0.277  0.00  0.00    +0.141 C 
ENDBRANCH  14  20
ENDBRANCH  12  14
ENDBRANCH   1  12
BRANCH   3  23
ATOM     23  N   LIG    1        4.186   2.524  -0.147  0.00  0.00    -0.307 N 
ATOM     24  H   LIG    1        5.099   2.472  -0.575  0.00  0.00    +0.149 HD
BRANCH  23  25
ATOM     25  C   LIG    1        3.786   3.815   0.306  0.00  0.00    +0.138 A 
ATOM     26  C   LIG    1        2.758   4.073   1.227  0.00  0.00    +0.155 A 
ATOM     27  N   LIG    1        2.469   5.341   1.627  0.00  0.00    -0.240 NA
ATOM     28  C   LIG    1        3.225   6.344   1.106  0.00  0.00    +0.158 A 
ATOM     29  C   LIG    1        4.263   6.088   0.203  0.00  0.00    +0.151 A 
ATOM     30  N   LIG    1        4.553   4.819  -0.193  0.00  0.00    -0.236 NA
BRANCH  28  31
ATOM     31  C   LIG    1        2.900   7.691   1.543  0.00  0.00    +0.121 C 
ATOM     32  N   LIG    1        2.642   8.764   1.890  0.00  0.00    -0.189 NA
ENDBRANCH  28  31
ENDBRANCH  23  25
ENDBRANCH   3  23
TORSDOF 7
