REMARK  Name = DB16756
REMARK                            x       y       z     vdW  Elec       q    Type
REMARK                         _______ _______ _______ _____ _____    ______ ____
ROOT
ATOM      1  N   LIG    1        2.255  -0.688   1.248  0.00  0.00    -0.247 N 
ATOM      2  H   LIG    1        1.810  -1.325   1.893  0.00  0.00    +0.158 HD
ATOM      3  C   LIG    1        1.455   0.163   0.560  0.00  0.00    +0.308 C 
ATOM      4  O   LIG    1        1.878   0.969  -0.273  0.00  0.00    -0.252 OA
ATOM      5  N   LIG    1        0.131   0.048   0.841  0.00  0.00    -0.285 N 
ATOM      6  C   LIG    1       -0.878   0.842   0.131  0.00  0.00    +0.113 C 
ATOM      7  C   LIG    1       -2.217   0.281   0.635  0.00  0.00    +0.013 C 
ATOM      8  C   LIG    1       -1.918  -0.394   1.964  0.00  0.00    +0.013 C 
ATOM      9  C   LIG    1       -2.201   0.657   3.059  0.00  0.00    +0.028 C 
ATOM     10  C   LIG    1       -2.902   1.845   2.367  0.00  0.00    +0.075 C 
ATOM     11  C   LIG    1       -3.266   1.353   0.954  0.00  0.00    +0.028 C 
ATOM     12  C   LIG    1       -0.455  -0.838   1.860  0.00  0.00    +0.113 C 
ENDROOT
BRANCH   1  13
ATOM     13  C   LIG    1        3.637  -0.777   1.166  0.00  0.00    +0.189 A 
ATOM     14  S   LIG    1        4.444  -1.959   2.126  0.00  0.00    +0.053 S 
ATOM     15  N   LIG    1        5.956  -1.452   1.502  0.00  0.00    -0.154 NA
ATOM     16  C   LIG    1        5.707  -0.468   0.658  0.00  0.00    +0.327 A 
ATOM     17  N   LIG    1        4.461  -0.065   0.441  0.00  0.00    -0.171 NA
BRANCH  16  18
ATOM     18  O   LIG    1        6.804   0.090   0.040  0.00  0.00    -0.465 OA
ATOM     19  C   LIG    1        6.575   1.177  -0.855  0.00  0.00    +0.280 C 
ENDBRANCH  16  18
ENDBRANCH   1  13
BRANCH  10  20
ATOM     20  N   LIG    1       -4.031   2.411   3.125  0.00  0.00    -0.315 N 
ATOM     21  C   LIG    1       -5.247   1.606   3.281  0.00  0.00    +0.131 C 
BRANCH  20  22
ATOM     22  C   LIG    1       -4.105   3.814   3.343  0.00  0.00    +0.134 A 
ATOM     23  C   LIG    1       -2.962   4.618   3.606  0.00  0.00    +0.059 A 
ATOM     24  C   LIG    1       -1.543   4.440   3.781  0.00  0.00    +0.032 A 
ATOM     25  C   LIG    1       -1.000   5.688   4.017  0.00  0.00    +0.085 A 
ATOM     26  N   LIG    1       -2.000   6.629   4.025  0.00  0.00    -0.346 N 
ATOM     27  H   LIG    1       -1.828   7.610   4.192  0.00  0.00    +0.167 HD
ATOM     28  C   LIG    1       -3.209   6.012   3.795  0.00  0.00    +0.143 A 
ATOM     29  N   LIG    1       -4.405   6.606   3.763  0.00  0.00    -0.218 NA
ATOM     30  C   LIG    1       -5.422   5.736   3.545  0.00  0.00    +0.225 A 
ATOM     31  N   LIG    1       -5.340   4.397   3.347  0.00  0.00    -0.220 NA
ENDBRANCH  20  22
ENDBRANCH  10  20
TORSDOF 4
