REMARK  Name = DB16076
REMARK                            x       y       z     vdW  Elec       q    Type
REMARK                         _______ _______ _______ _____ _____    ______ ____
ROOT
ATOM      1  C   LIG    1        1.241   0.386  -0.196  0.00  0.00    +0.322 A 
ATOM      2  N   LIG    1        2.038   1.482   0.004  0.00  0.00    -0.175 NA
ATOM      3  C   LIG    1        3.370   1.233  -0.070  0.00  0.00    +0.170 A 
ATOM      4  N   LIG    1        4.430   2.108   0.062  0.00  0.00    -0.277 N 
ATOM      5  C   LIG    1        5.612   1.454  -0.116  0.00  0.00    +0.329 A 
ATOM      6  O   LIG    1        6.752   1.917  -0.085  0.00  0.00    -0.246 OA
ATOM      7  N   LIG    1        5.267   0.164  -0.334  0.00  0.00    -0.302 N 
ATOM      8  H   LIG    1        5.933  -0.577  -0.500  0.00  0.00    +0.171 HD
ATOM      9  C   LIG    1        3.902   0.002  -0.317  0.00  0.00    +0.126 A 
ATOM     10  C   LIG    1        3.030  -1.075  -0.496  0.00  0.00    +0.149 A 
ATOM     11  N   LIG    1        1.681  -0.885  -0.435  0.00  0.00    -0.178 NA
ENDROOT
BRANCH  10  12
ATOM     12  N   LIG    1        3.487  -2.366  -0.747  0.00  0.00    -0.341 N 
ATOM     13  H   LIG    1        2.815  -3.110  -0.870  0.00  0.00    +0.144 HD
ATOM     14  H   LIG    1        4.479  -2.545  -0.798  0.00  0.00    +0.144 HD
ENDBRANCH  10  12
BRANCH   1  15
ATOM     15  O   LIG    1       -0.136   0.521  -0.180  0.00  0.00    -0.459 OA
BRANCH  15  16
ATOM     16  C   LIG    1       -0.747   1.816  -0.093  0.00  0.00    +0.174 C 
ATOM     17  C   LIG    1       -0.685   2.513  -1.470  0.00  0.00    +0.052 C 
BRANCH  16  18
ATOM     18  C   LIG    1       -2.189   1.589   0.406  0.00  0.00    +0.044 C 
BRANCH  18  20
ATOM     19  C   LIG    1       -4.367   2.615   1.286  0.00  0.00    +0.004 C 
ATOM     20  C   LIG    1       -2.958   2.884   0.739  0.00  0.00    +0.000 C 
ENDBRANCH  18  20
ENDBRANCH  16  18
ENDBRANCH  15  16
ENDBRANCH   1  15
BRANCH   4  21
ATOM     21  C   LIG    1        4.362   3.546   0.344  0.00  0.00    +0.128 C 
BRANCH  21  22
ATOM     22  C   LIG    1        4.224   4.435  -0.911  0.00  0.00    +0.022 C 
BRANCH  22  23
ATOM     23  C   LIG    1        2.927   4.203  -1.709  0.00  0.00    -0.000 C 
BRANCH  23  24
ATOM     24  C   LIG    1        2.719   5.208  -2.852  0.00  0.00    -0.019 C 
BRANCH  24  25
ATOM     25  C   LIG    1        1.407   4.942  -3.614  0.00  0.00    -0.079 C 
BRANCH  25  26
ATOM     26  N   LIG    1        1.280   5.839  -4.869  0.00  0.00    +0.380 N 
ATOM     27  H   LIG    1        2.138   5.777  -5.400  0.00  0.00    -0.082 HD
ATOM     28  C   LIG    1        1.047   7.324  -4.492  0.00  0.00    -0.079 C 
ATOM     29  C   LIG    1        0.947   8.166  -5.778  0.00  0.00    -0.019 C 
ATOM     30  C   LIG    1       -0.144   7.647  -6.728  0.00  0.00    -0.004 C 
ATOM     31  C   LIG    1        0.049   6.155  -7.044  0.00  0.00    -0.019 C 
ATOM     32  C   LIG    1        0.137   5.303  -5.766  0.00  0.00    -0.079 C 
ENDBRANCH  25  26
ENDBRANCH  24  25
ENDBRANCH  23  24
ENDBRANCH  22  23
ENDBRANCH  21  22
ENDBRANCH   4  21
TORSDOF 11
