REMARK  Name = DB16822
REMARK                            x       y       z     vdW  Elec       q    Type
REMARK                         _______ _______ _______ _____ _____    ______ ____
ROOT
ATOM      1  C   LIG    1       -2.387   0.712  -0.761  0.00  0.00    +0.147 A 
ATOM      2  C   LIG    1       -1.077   0.911  -1.220  0.00  0.00    +0.112 A 
ATOM      3  C   LIG    1       -0.059   0.094  -0.723  0.00  0.00    +0.221 A 
ATOM      4  N   LIG    1       -0.308  -0.879   0.197  0.00  0.00    -0.187 NA
ATOM      5  C   LIG    1       -1.593  -1.015   0.600  0.00  0.00    +0.193 A 
ATOM      6  N   LIG    1       -2.632  -0.264   0.161  0.00  0.00    -0.205 NA
ENDROOT
BRANCH   1   7
ATOM      7  N   LIG    1       -3.369   1.531  -1.264  0.00  0.00    -0.189 N 
ATOM      8  H   LIG    1       -3.094   2.235  -1.896  0.00  0.00    +0.176 HD
BRANCH   7   9
ATOM      9  S   LIG    1       -4.900   1.433  -0.909  0.00  0.00    +0.113 S 
ATOM     10  O   LIG    1       -5.744   2.116  -1.895  0.00  0.00    -0.138 OA
ATOM     11  O   LIG    1       -5.360   0.112  -0.461  0.00  0.00    -0.138 OA
BRANCH   9  12
ATOM     12  N   LIG    1       -4.968   2.456   0.526  0.00  0.00    -0.164 NA
ATOM     13  C   LIG    1       -6.198   3.061   1.125  0.00  0.00    +0.112 C 
ATOM     14  C   LIG    1       -5.616   2.643   2.482  0.00  0.00    +0.034 C 
ATOM     15  C   LIG    1       -4.290   2.217   1.840  0.00  0.00    +0.112 C 
ENDBRANCH   9  12
ENDBRANCH   7   9
ENDBRANCH   1   7
BRANCH   3  16
ATOM     16  O   LIG    1        1.231   0.291  -1.186  0.00  0.00    -0.471 OA
BRANCH  16  17
ATOM     17  C   LIG    1        2.308  -0.563  -0.775  0.00  0.00    +0.203 C 
ATOM     18  C   LIG    1        3.608   0.234  -1.000  0.00  0.00    +0.055 C 
BRANCH  17  19
ATOM     19  C   LIG    1        2.243  -1.930  -1.522  0.00  0.00    +0.180 C 
BRANCH  19  20
ATOM     20  O   LIG    1        2.396  -1.729  -2.916  0.00  0.00    -0.386 OA
ATOM     21  H   LIG    1        1.736  -1.092  -3.202  0.00  0.00    +0.210 HD
ENDBRANCH  19  20
BRANCH  19  22
ATOM     22  C   LIG    1        3.296  -2.962  -1.060  0.00  0.00    +0.190 C 
BRANCH  22  23
ATOM     23  O   LIG    1        3.081  -3.359   0.280  0.00  0.00    -0.392 OA
ATOM     24  H   LIG    1        3.744  -4.012   0.516  0.00  0.00    +0.210 HD
ENDBRANCH  22  23
ENDBRANCH  19  22
ENDBRANCH  17  19
ENDBRANCH  16  17
ENDBRANCH   3  16
BRANCH   5  25
ATOM     25  S   LIG    1       -1.924  -2.277   1.792  0.00  0.00    -0.081 S 
BRANCH  25  26
ATOM     26  C   LIG    1       -3.707  -2.222   2.152  0.00  0.00    +0.115 C 
BRANCH  26  27
ATOM     27  C   LIG    1       -4.107  -3.285   3.165  0.00  0.00    +0.001 A 
ATOM     28  C   LIG    1       -4.843  -4.400   2.749  0.00  0.00    +0.007 A 
ATOM     29  C   LIG    1       -5.215  -5.382   3.668  0.00  0.00    +0.003 A 
ATOM     30  C   LIG    1       -4.856  -5.255   5.008  0.00  0.00    +0.041 A 
ATOM     31  C   LIG    1       -4.124  -4.146   5.433  0.00  0.00    +0.159 A 
ATOM     32  F   LIG    1       -3.778  -4.028   6.735  0.00  0.00    -0.202 F 
ATOM     33  C   LIG    1       -3.750  -3.160   4.516  0.00  0.00    +0.162 A 
ATOM     34  F   LIG    1       -3.044  -2.087   4.942  0.00  0.00    -0.202 F 
ENDBRANCH  26  27
ENDBRANCH  25  26
ENDBRANCH   5  25
TORSDOF 12
