REMARK  Name = DB16407
REMARK                            x       y       z     vdW  Elec       q    Type
REMARK                         _______ _______ _______ _____ _____    ______ ____
ROOT
ATOM      1  C   LIG    1       -1.764   0.328   1.701  0.00  0.00    +0.212 C 
ATOM      2  C   LIG    1       -0.710  -0.715   1.306  0.00  0.00    +0.249 C 
ATOM      3  C   LIG    1       -0.013  -0.050   0.105  0.00  0.00    +0.263 C 
ATOM      4  O   LIG    1       -0.551   1.245   0.051  0.00  0.00    -0.319 OA
ATOM      5  F   LIG    1        0.112  -0.923   2.339  0.00  0.00    -0.238 F 
ATOM      6  C   LIG    1       -1.917   1.252   0.477  0.00  0.00    +0.247 C 
ENDROOT
BRANCH   3   7
ATOM      7  N   LIG    1        1.451  -0.079   0.028  0.00  0.00    -0.270 N 
ATOM      8  C   LIG    1        2.182   1.089   0.018  0.00  0.00    +0.096 A 
ATOM      9  C   LIG    1        3.523   1.101  -0.024  0.00  0.00    +0.061 A 
ATOM     10  C   LIG    1        4.183  -0.170  -0.054  0.00  0.00    +0.123 A 
ATOM     11  N   LIG    1        3.513  -1.271  -0.047  0.00  0.00    -0.178 NA
ATOM     12  C   LIG    1        2.100  -1.307  -0.026  0.00  0.00    +0.352 A 
ATOM     13  O   LIG    1        1.430  -2.342  -0.062  0.00  0.00    -0.244 OA
BRANCH  10  14
ATOM     14  N   LIG    1        5.523  -0.174  -0.086  0.00  0.00    -0.343 N 
ATOM     15  H   LIG    1        6.028  -1.048  -0.109  0.00  0.00    +0.144 HD
ATOM     16  H   LIG    1        6.041   0.693  -0.087  0.00  0.00    +0.144 HD
ENDBRANCH  10  14
ENDBRANCH   3   7
BRANCH   6  17
ATOM     17  N   LIG    1       -2.765   0.641  -0.553  0.00  0.00    -0.072 NA
ATOM     18  N   LIG    1       -2.614   1.034  -1.711  0.00  0.00    -0.194 NA
ATOM     19  N   LIG    1       -2.469   1.261  -2.818  0.00  0.00    -0.127 NA
ATOM     20  H   LIG    1       -2.736   2.136  -3.180  0.00  0.00    +0.228 HD
ENDBRANCH   6  17
BRANCH   1  21
ATOM     21  O   LIG    1       -2.964  -0.252   2.184  0.00  0.00    -0.384 OA
ATOM     22  H   LIG    1       -3.393  -0.710   1.457  0.00  0.00    +0.210 HD
ENDBRANCH   1  21
BRANCH   6  23
ATOM     23  C   LIG    1       -2.360   2.696   0.845  0.00  0.00    +0.221 C 
BRANCH  23  24
ATOM     24  O   LIG    1       -2.260   3.610  -0.232  0.00  0.00    -0.390 OA
ATOM     25  H   LIG    1       -2.553   4.473   0.070  0.00  0.00    +0.210 HD
ENDBRANCH  23  24
ENDBRANCH   6  23
TORSDOF 6
