REMARK  Name = DB16162
REMARK                            x       y       z     vdW  Elec       q    Type
REMARK                         _______ _______ _______ _____ _____    ______ ____
ROOT
ATOM      1  C   LIG    1       -2.527   0.717  -1.135  0.00  0.00    +0.011 C 
ATOM      2  C   LIG    1       -4.045   0.433  -0.951  0.00  0.00    +0.060 C 
ATOM      3  C   LIG    1       -4.732   1.720  -0.518  0.00  0.00    +0.048 A 
ATOM      4  N   LIG    1       -6.087   1.996  -0.524  0.00  0.00    -0.236 N 
ATOM      5  N   LIG    1       -6.326   3.259  -0.128  0.00  0.00    -0.174 NA
ATOM      6  C   LIG    1       -5.147   3.780   0.112  0.00  0.00    +0.138 A 
ATOM      7  C   LIG    1       -4.095   2.906  -0.173  0.00  0.00    -0.005 A 
ATOM      8  C   LIG    1       -2.583   3.050  -0.063  0.00  0.00    +0.055 C 
ATOM      9  C   LIG    1       -1.870   1.649  -0.021  0.00  0.00    +0.057 C 
ATOM     10  C   LIG    1       -0.365   1.806  -0.418  0.00  0.00    +0.125 C 
ATOM     11  N   LIG    1        0.300   0.485  -0.533  0.00  0.00    -0.174 NA
ATOM     12  C   LIG    1       -0.222  -0.364  -1.624  0.00  0.00    +0.110 C 
ATOM     13  C   LIG    1       -1.734  -0.595  -1.421  0.00  0.00    +0.022 C 
ENDROOT
BRANCH   4  14
ATOM     14  C   LIG    1       -7.171   1.150  -0.863  0.00  0.00    +0.066 A 
ATOM     15  C   LIG    1       -8.253   1.657  -1.596  0.00  0.00    +0.030 A 
ATOM     16  C   LIG    1       -9.317   0.825  -1.934  0.00  0.00    +0.040 A 
ATOM     17  C   LIG    1       -9.306  -0.509  -1.536  0.00  0.00    +0.124 A 
ATOM     18  F   LIG    1      -10.339  -1.316  -1.865  0.00  0.00    -0.205 F 
ATOM     19  C   LIG    1       -8.240  -1.019  -0.798  0.00  0.00    +0.040 A 
ATOM     20  C   LIG    1       -7.173  -0.191  -0.459  0.00  0.00    +0.030 A 
ENDBRANCH   4  14
BRANCH  11  21
ATOM     21  S   LIG    1        2.033   0.417  -0.184  0.00  0.00    +0.081 S 
ATOM     22  O   LIG    1        2.678   1.631  -0.697  0.00  0.00    -0.151 OA
ATOM     23  O   LIG    1        2.542  -0.923  -0.499  0.00  0.00    -0.151 OA
BRANCH  21  24
ATOM     24  C   LIG    1        2.002   0.553   1.617  0.00  0.00    +0.235 A 
ATOM     25  C   LIG    1        2.558   1.550   2.424  0.00  0.00    +0.185 A 
ATOM     26  N   LIG    1        2.295   1.296   3.682  0.00  0.00    -0.159 NA
ATOM     27  N   LIG    1        1.614   0.144   3.596  0.00  0.00    -0.185 N 
ATOM     28  C   LIG    1        1.024  -0.480   4.769  0.00  0.00    +0.197 C 
ATOM     29  N   LIG    1        1.387  -0.330   2.365  0.00  0.00    -0.132 NA
ENDBRANCH  21  24
ENDBRANCH  11  21
BRANCH   9  30
ATOM     30  C   LIG    1       -1.945   1.034   1.435  0.00  0.00    +0.189 C 
ATOM     31  O   LIG    1       -2.403  -0.101   1.580  0.00  0.00    -0.290 OA
BRANCH  30  32
ATOM     32  C   LIG    1       -1.530   1.831   2.646  0.00  0.00    +0.107 A 
ATOM     33  N   LIG    1       -0.701   2.899   2.489  0.00  0.00    -0.252 NA
ATOM     34  C   LIG    1       -0.291   3.581   3.586  0.00  0.00    +0.112 A 
ATOM     35  C   LIG    1       -0.665   3.224   4.879  0.00  0.00    +0.032 A 
ATOM     36  C   LIG    1       -1.506   2.119   5.057  0.00  0.00    +0.058 A 
ATOM     37  C   LIG    1       -1.941   1.417   3.925  0.00  0.00    +0.043 A 
BRANCH  36  38
ATOM     38  C   LIG    1       -1.916   1.676   6.460  0.00  0.00    +0.418 C 
ATOM     39  F   LIG    1       -2.220   0.377   6.497  0.00  0.00    -0.166 F 
ATOM     40  F   LIG    1       -2.987   2.373   6.839  0.00  0.00    -0.166 F 
ATOM     41  F   LIG    1       -0.934   1.892   7.337  0.00  0.00    -0.166 F 
ENDBRANCH  36  38
ENDBRANCH  30  32
ENDBRANCH   9  30
TORSDOF 6
