REMARK  Name = DB16033
REMARK                            x       y       z     vdW  Elec       q    Type
REMARK                         _______ _______ _______ _____ _____    ______ ____
ROOT
ATOM      1  N   LIG    1        1.446   0.119  -0.263  0.00  0.00    -0.216 N 
ATOM      2  C   LIG    1        2.191   0.751  -1.271  0.00  0.00    +0.409 C 
ATOM      3  O   LIG    1        1.833   1.434  -2.229  0.00  0.00    -0.226 OA
ATOM      4  O   LIG    1        3.495   0.498  -1.039  0.00  0.00    -0.442 OA
ATOM      5  C   LIG    1        3.753  -0.249   0.129  0.00  0.00    +0.132 C 
ATOM      6  C   LIG    1        4.547   0.625   1.148  0.00  0.00    +0.058 C 
ATOM      7  C   LIG    1        6.010   0.993   0.732  0.00  0.00    -0.010 C 
ATOM      8  C   LIG    1        6.050   1.902  -0.527  0.00  0.00    +0.013 C 
ATOM      9  C   LIG    1        6.731  -0.362   0.458  0.00  0.00    +0.008 C 
ATOM     10  C   LIG    1        6.044  -1.216  -0.632  0.00  0.00    +0.005 C 
ATOM     11  C   LIG    1        4.571  -1.508  -0.269  0.00  0.00    +0.050 C 
ATOM     12  C   LIG    1        2.356  -0.587   0.625  0.00  0.00    +0.166 C 
ENDROOT
BRANCH   1  16
ATOM     13  C   LIG    1       -2.693   0.027   0.166  0.00  0.00    +0.090 A 
ATOM     14  C   LIG    1       -2.096   0.732  -0.887  0.00  0.00    +0.139 A 
ATOM     15  N   LIG    1       -0.749   0.775  -1.043  0.00  0.00    -0.236 NA
ATOM     16  C   LIG    1        0.032   0.107  -0.143  0.00  0.00    +0.148 A 
ATOM     17  C   LIG    1       -0.574  -0.600   0.909  0.00  0.00    +0.155 A 
ATOM     18  N   LIG    1       -1.922  -0.645   1.067  0.00  0.00    -0.252 NA
BRANCH  13  20
ATOM     19  C   LIG    1       -4.686  -0.440   1.748  0.00  0.00    +0.048 C 
ATOM     20  C   LIG    1       -4.224  -0.033   0.327  0.00  0.00    +0.104 C 
ATOM     21  C   LIG    1       -4.823  -0.986  -0.727  0.00  0.00    +0.048 C 
BRANCH  20  22
ATOM     22  O   LIG    1       -4.811   1.238   0.105  0.00  0.00    -0.383 OA
ATOM     23  H   LIG    1       -5.759   1.160   0.230  0.00  0.00    +0.211 HD
ENDBRANCH  20  22
ENDBRANCH  13  20
ENDBRANCH   1  16
BRANCH   7  24
ATOM     24  C   LIG    1        6.712   1.750   1.913  0.00  0.00    +0.130 C 
BRANCH  24  25
ATOM     25  N   LIG    1        6.793   1.029   3.187  0.00  0.00    -0.330 N 
ATOM     26  C   LIG    1        7.798   0.184   3.623  0.00  0.00    +0.070 A 
ATOM     27  C   LIG    1        9.002  -0.257   3.062  0.00  0.00    +0.046 A 
ATOM     28  C   LIG    1        9.771  -1.142   3.826  0.00  0.00    +0.054 A 
ATOM     29  C   LIG    1        9.360  -1.561   5.096  0.00  0.00    +0.021 A 
ATOM     30  C   LIG    1        8.163  -1.114   5.658  0.00  0.00    +0.031 A 
ATOM     31  C   LIG    1        7.371  -0.229   4.913  0.00  0.00    +0.089 A 
ATOM     32  N   LIG    1        6.174   0.343   5.248  0.00  0.00    -0.236 NA
ATOM     33  C   LIG    1        5.873   1.082   4.213  0.00  0.00    +0.200 A 
BRANCH  28  34
ATOM     34  C   LIG    1       11.028  -1.638   3.284  0.00  0.00    +0.099 C 
ATOM     35  N   LIG    1       12.026  -2.032   2.852  0.00  0.00    -0.191 NA
ENDBRANCH  28  34
ENDBRANCH  24  25
ENDBRANCH   7  24
TORSDOF 6
