REMARK  Name = DB16942
REMARK                            x       y       z     vdW  Elec       q    Type
REMARK                         _______ _______ _______ _____ _____    ______ ____
ROOT
ATOM      1  C   LIG    1        1.557  -0.150  -0.150  0.00  0.00    +0.068 C 
ATOM      2  C   LIG    1        2.304   0.954   0.073  0.00  0.00    +0.013 C 
ENDROOT
BRANCH   2   3
ATOM      3  C   LIG    1        3.780   1.038   0.028  0.00  0.00    -0.021 A 
ATOM      4  C   LIG    1        4.598  -0.106  -0.065  0.00  0.00    +0.057 A 
ATOM      5  C   LIG    1        5.977   0.073  -0.106  0.00  0.00    +0.167 A 
ATOM      6  O   LIG    1        6.954  -0.864  -0.216  0.00  0.00    -0.453 OA
ATOM      7  C   LIG    1        8.162  -0.174  -0.034  0.00  0.00    +0.466 C 
ATOM      8  O   LIG    1        7.894   1.197  -0.158  0.00  0.00    -0.453 OA
ATOM      9  C   LIG    1        6.543   1.315  -0.068  0.00  0.00    +0.166 A 
ATOM     10  C   LIG    1        5.773   2.468   0.015  0.00  0.00    +0.050 A 
ATOM     11  C   LIG    1        4.381   2.314   0.067  0.00  0.00    +0.012 A 
ENDBRANCH   2   3
BRANCH   1  13
ATOM     12  O   LIG    1       -0.517   0.925  -0.167  0.00  0.00    -0.271 OA
ATOM     13  C   LIG    1        0.105  -0.139  -0.086  0.00  0.00    +0.239 C 
ATOM     14  N   LIG    1       -0.536  -1.335   0.066  0.00  0.00    -0.298 N 
ATOM     15  C   LIG    1        0.114  -2.660   0.100  0.00  0.00    +0.108 C 
ATOM     16  C   LIG    1       -0.027  -3.265  -1.316  0.00  0.00    +0.019 C 
ATOM     17  C   LIG    1       -1.506  -3.332  -1.761  0.00  0.00    +0.003 C 
ATOM     18  C   LIG    1       -2.236  -1.988  -1.538  0.00  0.00    +0.019 C 
ATOM     19  C   LIG    1       -1.998  -1.421  -0.117  0.00  0.00    +0.108 C 
ENDBRANCH   1  13
TORSDOF 2
