REMARK  Name = DB16859
REMARK                            x       y       z     vdW  Elec       q    Type
REMARK                         _______ _______ _______ _____ _____    ______ ____
ROOT
ATOM      1  C   LIG    1       -0.780  -0.744  -1.344  0.00  0.00    +0.340 C 
ATOM      2  O   LIG    1       -2.135  -0.606  -1.007  0.00  0.00    -0.331 OA
ATOM      3  C   LIG    1       -2.506  -1.383   0.138  0.00  0.00    +0.179 C 
ATOM      4  C   LIG    1       -1.775  -0.816   1.381  0.00  0.00    +0.177 C 
ATOM      5  C   LIG    1       -0.248  -0.738   1.138  0.00  0.00    +0.180 C 
ATOM      6  C   LIG    1        0.079  -0.101  -0.239  0.00  0.00    +0.221 C 
ENDROOT
BRANCH   4   7
ATOM      7  O   LIG    1       -2.063  -1.572   2.546  0.00  0.00    -0.386 OA
ATOM      8  H   LIG    1       -1.647  -1.143   3.297  0.00  0.00    +0.210 HD
ENDBRANCH   4   7
BRANCH   5   9
ATOM      9  O   LIG    1        0.385  -0.021   2.184  0.00  0.00    -0.386 OA
ATOM     10  H   LIG    1        0.074   0.887   2.164  0.00  0.00    +0.210 HD
ENDBRANCH   5   9
BRANCH   1  11
ATOM     11  O   LIG    1       -0.497  -0.058  -2.529  0.00  0.00    -0.461 OA
BRANCH  11  14
ATOM     12  C   LIG    1       -1.953  -2.215  -5.186  0.00  0.00    +0.139 A 
ATOM     13  C   LIG    1       -1.657  -1.739  -3.911  0.00  0.00    +0.092 A 
ATOM     14  C   LIG    1       -0.861  -0.597  -3.749  0.00  0.00    +0.131 A 
ATOM     15  C   LIG    1       -0.395   0.059  -4.888  0.00  0.00    +0.092 A 
ATOM     16  C   LIG    1       -0.698  -0.404  -6.170  0.00  0.00    +0.134 A 
ATOM     17  O   LIG    1       -2.736  -3.354  -5.230  0.00  0.00    -0.483 OA
ATOM     18  C   LIG    1       -2.548  -4.195  -6.380  0.00  0.00    +0.211 C 
ATOM     19  C   LIG    1       -2.805  -3.323  -7.637  0.00  0.00    +0.129 C 
ATOM     20  C   LIG    1       -1.803  -2.161  -7.683  0.00  0.00    +0.174 C 
ATOM     21  O   LIG    1       -1.269  -1.790  -8.727  0.00  0.00    -0.292 OA
ATOM     22  C   LIG    1       -1.504  -1.548  -6.344  0.00  0.00    +0.101 A 
BRANCH  18  23
ATOM     23  C   LIG    1       -1.226  -4.987  -6.330  0.00  0.00    -0.007 A 
ATOM     24  C   LIG    1       -0.735  -5.416  -5.091  0.00  0.00    +0.011 A 
ATOM     25  C   LIG    1        0.456  -6.132  -5.012  0.00  0.00    +0.046 A 
ATOM     26  C   LIG    1        1.159  -6.432  -6.176  0.00  0.00    +0.117 A 
ATOM     27  C   LIG    1        0.676  -6.024  -7.417  0.00  0.00    +0.046 A 
ATOM     28  C   LIG    1       -0.515  -5.307  -7.495  0.00  0.00    +0.011 A 
BRANCH  26  29
ATOM     29  O   LIG    1        2.331  -7.137  -6.102  0.00  0.00    -0.507 OA
ATOM     30  H   LIG    1        2.573  -7.367  -5.202  0.00  0.00    +0.292 HD
ENDBRANCH  26  29
ENDBRANCH  18  23
BRANCH  16  31
ATOM     31  O   LIG    1       -0.186   0.306  -7.228  0.00  0.00    -0.506 OA
ATOM     32  H   LIG    1        0.342   1.059  -6.952  0.00  0.00    +0.292 HD
ENDBRANCH  16  31
ENDBRANCH  11  14
ENDBRANCH   1  11
BRANCH   3  33
ATOM     33  C   LIG    1       -4.043  -1.337   0.274  0.00  0.00    +0.190 C 
BRANCH  33  34
ATOM     34  O   LIG    1       -4.662  -1.975  -0.825  0.00  0.00    -0.392 OA
ATOM     35  H   LIG    1       -5.614  -1.925  -0.712  0.00  0.00    +0.210 HD
ENDBRANCH  33  34
ENDBRANCH   3  33
BRANCH   6  36
ATOM     36  O   LIG    1        1.468  -0.053  -0.596  0.00  0.00    -0.337 OA
BRANCH  36  37
ATOM     37  C   LIG    1        2.205  -1.248  -0.632  0.00  0.00    +0.282 C 
ATOM     38  O   LIG    1        2.667  -1.631   0.642  0.00  0.00    -0.343 OA
ATOM     39  C   LIG    1        3.560  -0.702   1.274  0.00  0.00    +0.149 C 
ATOM     40  C   LIG    1        4.829  -0.474   0.416  0.00  0.00    +0.174 C 
ATOM     41  C   LIG    1        4.422  -0.068  -1.016  0.00  0.00    +0.179 C 
ATOM     42  C   LIG    1        3.868  -1.249   2.678  0.00  0.00    +0.041 C 
ATOM     43  C   LIG    1        3.384  -1.055  -1.600  0.00  0.00    +0.201 C 
BRANCH  40  44
ATOM     44  O   LIG    1        5.683   0.495   1.000  0.00  0.00    -0.387 OA
ATOM     45  H   LIG    1        6.481   0.557   0.469  0.00  0.00    +0.210 HD
ENDBRANCH  40  44
BRANCH  41  46
ATOM     46  O   LIG    1        5.540   0.092  -1.874  0.00  0.00    -0.386 OA
ATOM     47  H   LIG    1        5.966  -0.761  -1.984  0.00  0.00    +0.210 HD
ENDBRANCH  41  46
BRANCH  43  48
ATOM     48  O   LIG    1        3.949  -2.311  -1.938  0.00  0.00    -0.384 OA
ATOM     49  H   LIG    1        4.485  -2.612  -1.201  0.00  0.00    +0.210 HD
ENDBRANCH  43  48
ENDBRANCH  36  37
ENDBRANCH   6  36
TORSDOF 14
