REMARK  Name = DB16055
REMARK                            x       y       z     vdW  Elec       q    Type
REMARK                         _______ _______ _______ _____ _____    ______ ____
ROOT
ATOM      1  C   LIG    1       -2.826  -0.040  -0.050  0.00  0.00    +0.094 A 
ATOM      2  C   LIG    1       -2.062  -1.210  -0.132  0.00  0.00    +0.031 A 
ATOM      3  C   LIG    1       -0.670  -1.149  -0.173  0.00  0.00    +0.048 A 
ATOM      4  C   LIG    1       -0.022   0.085  -0.108  0.00  0.00    +0.132 A 
ATOM      5  C   LIG    1       -0.771   1.257   0.035  0.00  0.00    +0.008 A 
ATOM      6  C   LIG    1       -0.291   2.691   0.141  0.00  0.00    +0.117 C 
ATOM      7  C   LIG    1       -1.553   3.437   0.571  0.00  0.00    +0.282 C 
ATOM      8  F   LIG    1       -1.605   3.450   1.906  0.00  0.00    -0.202 F 
ATOM      9  F   LIG    1       -1.545   4.700   0.138  0.00  0.00    -0.202 F 
ATOM     10  C   LIG    1       -2.737   2.618   0.042  0.00  0.00    +0.216 C 
ATOM     11  C   LIG    1       -2.174   1.203   0.014  0.00  0.00    +0.018 A 
ENDROOT
BRANCH   1  13
ATOM     12  C   LIG    1       -5.008   0.024   1.835  0.00  0.00    +0.200 C 
ATOM     13  S   LIG    1       -4.617  -0.189   0.003  0.00  0.00    -0.006 S 
ATOM     14  O   LIG    1       -5.191   0.944  -0.730  0.00  0.00    -0.170 OA
ATOM     15  O   LIG    1       -4.965  -1.562  -0.382  0.00  0.00    -0.170 OA
ENDBRANCH   1  13
BRANCH  10  16
ATOM     16  O   LIG    1       -3.189   3.050  -1.231  0.00  0.00    -0.381 OA
ATOM     17  H   LIG    1       -2.441   3.083  -1.832  0.00  0.00    +0.210 HD
ENDBRANCH  10  16
BRANCH   4  18
ATOM     18  O   LIG    1        1.349   0.176  -0.130  0.00  0.00    -0.456 OA
BRANCH  18  19
ATOM     19  C   LIG    1        1.970   0.087  -1.352  0.00  0.00    +0.132 A 
ATOM     20  C   LIG    1        2.203  -1.157  -1.948  0.00  0.00    +0.084 A 
ATOM     21  C   LIG    1        2.840  -1.233  -3.186  0.00  0.00    +0.128 A 
ATOM     22  F   LIG    1        3.058  -2.438  -3.760  0.00  0.00    -0.205 F 
ATOM     23  C   LIG    1        3.255  -0.068  -3.831  0.00  0.00    +0.057 A 
ATOM     24  C   LIG    1        3.037   1.179  -3.236  0.00  0.00    +0.058 A 
ATOM     25  C   LIG    1        2.397   1.252  -1.995  0.00  0.00    +0.065 A 
BRANCH  24  26
ATOM     26  C   LIG    1        3.477   2.395  -3.904  0.00  0.00    +0.099 C 
ATOM     27  N   LIG    1        3.826   3.362  -4.435  0.00  0.00    -0.191 NA
ENDBRANCH  24  26
ENDBRANCH  18  19
ENDBRANCH   4  18
TORSDOF 5
