REMARK  Name = DB16230
REMARK                            x       y       z     vdW  Elec       q    Type
REMARK                         _______ _______ _______ _____ _____    ______ ____
ROOT
ATOM      1  C   LIG    1        3.869   0.395  -0.670  0.00  0.00    +0.250 C 
ATOM      2  N   LIG    1        4.718   0.510  -1.730  0.00  0.00    -0.301 N 
ATOM      3  C   LIG    1        5.553   1.719  -1.890  0.00  0.00    +0.089 C 
ATOM      4  C   LIG    1        6.979   1.285  -2.304  0.00  0.00    -0.059 C 
ATOM      5  N   LIG    1        6.931   0.409  -3.578  0.00  0.00    +0.384 N 
ATOM      6  H   LIG    1        6.522   0.951  -4.326  0.00  0.00    -0.081 HD
ATOM      7  C   LIG    1        6.024  -0.814  -3.324  0.00  0.00    -0.059 C 
ATOM      8  C   LIG    1        4.609  -0.333  -2.939  0.00  0.00    +0.089 C 
ATOM      9  O   LIG    1        3.643   1.333   0.098  0.00  0.00    -0.270 OA
ENDROOT
BRANCH   1  11
ATOM     10  C   LIG    1        1.849  -1.072  -0.008  0.00  0.00    +0.131 A 
ATOM     11  C   LIG    1        3.208  -0.946  -0.393  0.00  0.00    +0.077 A 
ATOM     12  C   LIG    1        3.975  -2.123  -0.459  0.00  0.00    +0.018 A 
ATOM     13  C   LIG    1        3.403  -3.361  -0.177  0.00  0.00    +0.021 A 
ATOM     14  C   LIG    1        2.061  -3.400   0.181  0.00  0.00    +0.113 A 
ATOM     15  N   LIG    1        1.295  -2.288   0.268  0.00  0.00    -0.240 NA
BRANCH  10  16
ATOM     16  N   LIG    1        1.010   0.060   0.085  0.00  0.00    -0.328 N 
ATOM     17  H   LIG    1        1.377   0.941  -0.246  0.00  0.00    +0.147 HD
BRANCH  16  18
ATOM     18  C   LIG    1       -0.439  -0.059   0.215  0.00  0.00    +0.103 C 
BRANCH  18  19
ATOM     19  C   LIG    1       -1.147   1.298   0.377  0.00  0.00    +0.021 C 
BRANCH  19  21
ATOM     20  C   LIG    1       -3.382   0.632  -0.707  0.00  0.00    +0.007 C 
ATOM     21  C   LIG    1       -2.682   1.201   0.543  0.00  0.00    -0.016 C 
ATOM     22  C   LIG    1       -3.283   2.565   0.930  0.00  0.00    +0.007 C 
ENDBRANCH  19  21
ENDBRANCH  18  19
ENDBRANCH  16  18
ENDBRANCH  10  16
ENDBRANCH   1  11
BRANCH   5  23
ATOM     23  C   LIG    1        8.341  -0.057  -4.010  0.00  0.00    -0.043 C 
BRANCH  23  24
ATOM     24  C   LIG    1        9.293   1.071  -4.384  0.00  0.00    -0.064 A 
ATOM     25  C   LIG    1        9.200   1.669  -5.644  0.00  0.00    +0.002 A 
ATOM     26  C   LIG    1       10.082   2.687  -5.996  0.00  0.00    +0.000 A 
ATOM     27  C   LIG    1       11.057   3.099  -5.091  0.00  0.00    +0.000 A 
ATOM     28  C   LIG    1       11.161   2.501  -3.837  0.00  0.00    +0.000 A 
ATOM     29  C   LIG    1       10.280   1.483  -3.483  0.00  0.00    +0.002 A 
ENDBRANCH  23  24
ENDBRANCH   5  23
TORSDOF 7
