REMARK  Name = DB16913
REMARK                            x       y       z     vdW  Elec       q    Type
REMARK                         _______ _______ _______ _____ _____    ______ ____
ROOT
ATOM      1  C   LIG    1       -0.530  -0.419   1.569  0.00  0.00    -0.068 C 
ATOM      2  N   LIG    1        0.224  -0.051   0.277  0.00  0.00    +0.384 N 
ATOM      3  H   LIG    1       -0.091  -0.649  -0.475  0.00  0.00    -0.081 HD
ATOM      4  C   LIG    1       -0.331   1.371   0.024  0.00  0.00    -0.054 C 
ATOM      5  C   LIG    1       -1.799   1.247  -0.518  0.00  0.00    +0.092 C 
ATOM      6  C   LIG    1       -2.719   0.452   0.480  0.00  0.00    +0.030 C 
ATOM      7  C   LIG    1       -0.243   2.015   1.422  0.00  0.00    -0.016 C 
ATOM      8  C   LIG    1       -1.988  -0.755   1.147  0.00  0.00    -0.007 C 
ATOM      9  C   LIG    1       -0.391   0.857   2.425  0.00  0.00    -0.017 C 
ENDROOT
BRANCH   6  10
ATOM     10  C   LIG    1       -4.156   0.189  -0.008  0.00  0.00    -0.044 A 
ATOM     11  C   LIG    1       -4.656  -1.107  -0.199  0.00  0.00    +0.005 A 
ATOM     12  C   LIG    1       -5.957  -1.297  -0.657  0.00  0.00    +0.014 A 
ATOM     13  C   LIG    1       -6.765  -0.195  -0.926  0.00  0.00    +0.013 A 
ATOM     14  I   LIG    1       -8.716  -0.484  -1.620  0.00  0.00    -0.044 I 
ATOM     15  C   LIG    1       -6.283   1.097  -0.736  0.00  0.00    +0.014 A 
ATOM     16  C   LIG    1       -4.983   1.287  -0.277  0.00  0.00    +0.005 A 
ENDBRANCH   6  10
BRANCH   5  17
ATOM     17  C   LIG    1       -1.845   0.654  -1.953  0.00  0.00    +0.309 C 
ATOM     18  O   LIG    1       -1.046  -0.198  -2.349  0.00  0.00    -0.251 OA
BRANCH  17  19
ATOM     19  O   LIG    1       -2.828   1.208  -2.696  0.00  0.00    -0.468 OA
ATOM     20  C   LIG    1       -3.050   0.787  -4.034  0.00  0.00    +0.280 C 
ENDBRANCH  17  19
ENDBRANCH   5  17
BRANCH   2  21
ATOM     21  C   LIG    1        1.767  -0.140   0.335  0.00  0.00    -0.076 C 
BRANCH  21  22
ATOM     22  C   LIG    1        2.223  -1.608   0.291  0.00  0.00    +0.015 C 
BRANCH  22  23
ATOM     23  C   LIG    1        3.750  -1.750   0.231  0.00  0.00    +0.211 C 
ATOM     24  F   LIG    1        4.372  -1.220   1.285  0.00  0.00    -0.249 F 
ENDBRANCH  22  23
ENDBRANCH  21  22
ENDBRANCH   2  21
TORSDOF 6
