REMARK  Name = DB16968
REMARK                            x       y       z     vdW  Elec       q    Type
REMARK                         _______ _______ _______ _____ _____    ______ ____
ROOT
ATOM      1  C   LIG    1       -0.625  -0.059   0.544  0.00  0.00    +0.171 C 
ENDROOT
BRANCH   1   2
ATOM      2  N   LIG    1        0.835  -0.014   0.303  0.00  0.00    -0.279 N 
ATOM      3  C   LIG    1        1.978  -0.071   1.114  0.00  0.00    +0.240 C 
ATOM      4  O   LIG    1        2.162  -0.236   2.318  0.00  0.00    -0.273 OA
ATOM      5  C   LIG    1        2.896   0.194  -0.111  0.00  0.00    +0.190 C 
ATOM      6  C   LIG    1        1.582   0.577  -0.839  0.00  0.00    +0.129 C 
BRANCH   5   7
ATOM      7  N   LIG    1        3.675  -0.950  -0.647  0.00  0.00    -0.243 N 
ATOM      8  C   LIG    1        3.285  -2.298  -0.658  0.00  0.00    +0.404 C 
ATOM      9  O   LIG    1        2.323  -2.865  -0.142  0.00  0.00    -0.226 OA
ATOM     10  O   LIG    1        4.205  -2.967  -1.381  0.00  0.00    -0.448 OA
ATOM     11  C   LIG    1        5.279  -2.164  -1.813  0.00  0.00    +0.261 C 
ATOM     12  C   LIG    1        4.818  -0.750  -1.522  0.00  0.00    +0.148 C 
BRANCH  12  13
ATOM     13  C   LIG    1        5.908   0.171  -0.972  0.00  0.00    -0.024 A 
ATOM     14  C   LIG    1        6.303   0.098   0.369  0.00  0.00    +0.005 A 
ATOM     15  C   LIG    1        7.275   0.966   0.858  0.00  0.00    +0.000 A 
ATOM     16  C   LIG    1        7.851   1.907   0.006  0.00  0.00    +0.000 A 
ATOM     17  C   LIG    1        7.463   1.986  -1.330  0.00  0.00    +0.000 A 
ATOM     18  C   LIG    1        6.491   1.118  -1.818  0.00  0.00    +0.005 A 
ENDBRANCH  12  13
ENDBRANCH   5   7
BRANCH   6  19
ATOM     19  C   LIG    1        1.215   0.036  -2.209  0.00  0.00    -0.002 C 
ATOM     20  C   LIG    1        0.805   0.806  -3.234  0.00  0.00    +0.005 C 
BRANCH  20  21
ATOM     21  C   LIG    1        0.433   0.353  -4.590  0.00  0.00    -0.025 A 
ATOM     22  C   LIG    1        0.650  -0.960  -5.029  0.00  0.00    +0.008 A 
ATOM     23  C   LIG    1        0.274  -1.343  -6.314  0.00  0.00    +0.001 A 
ATOM     24  C   LIG    1       -0.321  -0.415  -7.164  0.00  0.00    +0.000 A 
ATOM     25  C   LIG    1       -0.543   0.892  -6.741  0.00  0.00    +0.001 A 
ATOM     26  C   LIG    1       -0.166   1.274  -5.456  0.00  0.00    +0.008 A 
ENDBRANCH  20  21
ENDBRANCH   6  19
ENDBRANCH   1   2
BRANCH   1  29
ATOM     27  N   LIG    1       -0.424  -2.179   1.804  0.00  0.00    -0.307 N 
ATOM     28  H   LIG    1        0.303  -2.381   1.133  0.00  0.00    +0.149 HD
ATOM     29  C   LIG    1       -0.999  -0.960   1.754  0.00  0.00    +0.235 C 
ATOM     30  O   LIG    1       -1.812  -0.572   2.595  0.00  0.00    -0.274 OA
BRANCH  27  32
ATOM     31  C   LIG    1        0.328  -4.379   2.614  0.00  0.00    +0.033 C 
ATOM     32  C   LIG    1       -0.616  -3.188   2.852  0.00  0.00    +0.100 C 
BRANCH  32  33
ATOM     33  C   LIG    1       -2.062  -3.666   3.038  0.00  0.00    -0.027 A 
ATOM     34  C   LIG    1       -2.563  -3.861   4.329  0.00  0.00    +0.005 A 
ATOM     35  C   LIG    1       -3.879  -4.276   4.515  0.00  0.00    +0.000 A 
ATOM     36  C   LIG    1       -4.696  -4.495   3.408  0.00  0.00    +0.000 A 
ATOM     37  C   LIG    1       -4.209  -4.302   2.118  0.00  0.00    +0.000 A 
ATOM     38  C   LIG    1       -2.893  -3.887   1.932  0.00  0.00    +0.005 A 
ENDBRANCH  32  33
ENDBRANCH  27  32
ENDBRANCH   1  29
BRANCH   1  39
ATOM     39  C   LIG    1       -1.314   1.344   0.504  0.00  0.00    +0.128 C 
BRANCH  39  40
ATOM     40  C   LIG    1       -0.696   2.457   1.389  0.00  0.00    +0.218 C 
ATOM     41  N   LIG    1       -0.943   3.765   1.096  0.00  0.00    -0.302 N 
ATOM     42  C   LIG    1       -1.416   4.220  -0.223  0.00  0.00    +0.106 C 
ATOM     43  C   LIG    1       -0.163   4.467  -1.097  0.00  0.00    +0.004 C 
ATOM     44  C   LIG    1        0.861   5.415  -0.405  0.00  0.00    -0.066 C 
ATOM     45  C   LIG    1        1.077   5.112   1.104  0.00  0.00    +0.004 C 
ATOM     46  C   LIG    1       -0.251   4.827   1.850  0.00  0.00    +0.106 C 
ATOM     47  O   LIG    1       -0.086   2.126   2.408  0.00  0.00    -0.276 OA
BRANCH  44  48
ATOM     48  N   LIG    1        2.233   5.482  -1.135  0.00  0.00    +0.382 N 
ATOM     49  H   LIG    1        2.857   5.985  -0.519  0.00  0.00    -0.081 HD
ATOM     50  C   LIG    1        2.131   6.329  -2.426  0.00  0.00    -0.078 C 
ATOM     51  C   LIG    1        3.545   6.541  -2.999  0.00  0.00    -0.019 C 
ATOM     52  C   LIG    1        4.283   5.212  -3.238  0.00  0.00    -0.004 C 
ATOM     53  C   LIG    1        4.307   4.338  -1.972  0.00  0.00    -0.019 C 
ATOM     54  C   LIG    1        2.894   4.107  -1.410  0.00  0.00    -0.078 C 
ENDBRANCH  44  48
ENDBRANCH  39  40
ENDBRANCH   1  39
TORSDOF 11
