REMARK  Name = DB16921
REMARK                            x       y       z     vdW  Elec       q    Type
REMARK                         _______ _______ _______ _____ _____    ______ ____
ROOT
ATOM      1  C   LIG    1        1.451  -0.209  -0.037  0.00  0.00    +0.250 C 
ATOM      2  O   LIG    1        1.979  -0.665   0.984  0.00  0.00    -0.285 OA
ENDROOT
BRANCH   1   3
ATOM      3  C   LIG    1        2.322   0.108  -1.238  0.00  0.00    +0.373 C 
ATOM      4  O   LIG    1        1.839  -0.183  -2.358  0.00  0.00    -0.242 OA
BRANCH   3   5
ATOM      5  O   LIG    1        3.443   0.620  -1.006  0.00  0.00    -0.475 OA
ATOM      6  H   LIG    1        4.017   0.833  -1.716  0.00  0.00    +0.295 HD
ENDBRANCH   3   5
ENDBRANCH   1   3
BRANCH   1   7
ATOM      7  C   LIG    1       -0.082   0.014  -0.083  0.00  0.00    +0.206 C 
BRANCH   7   8
ATOM      8  C   LIG    1       -0.503   1.508  -0.062  0.00  0.00    +0.313 C 
ATOM      9  O   LIG    1       -1.576   1.771  -0.649  0.00  0.00    -0.251 OA
BRANCH   8  10
ATOM     10  O   LIG    1        0.171   2.359   0.567  0.00  0.00    -0.480 OA
ATOM     11  H   LIG    1        0.142   2.380   1.503  0.00  0.00    +0.295 HD
ENDBRANCH   8  10
ENDBRANCH   7   8
ENDBRANCH   1   7
TORSDOF 5
