REMARK  Name = DB16194
REMARK                            x       y       z     vdW  Elec       q    Type
REMARK                         _______ _______ _______ _____ _____    ______ ____
ROOT
ATOM      1  CA  LIG    1        1.470  -0.017   0.000  0.00  0.00    +0.165 A 
ATOM      2  N   LIG    1        2.223  -1.122   0.000  0.00  0.00    -0.229 NA
ATOM      3  C   LIG    1        3.474  -0.729   0.000  0.00  0.00    +0.197 A 
ATOM      4  N   LIG    1        3.595   0.630   0.000  0.00  0.00    -0.350 N 
ATOM      5  H   LIG    1        4.448   1.170   0.000  0.00  0.00    +0.166 HD
ATOM      6  C   LIG    1        2.314   1.104   0.000  0.00  0.00    +0.119 A 
ENDROOT
BRANCH   1   7
ATOM      7  C   LIG    1       -0.014  -0.012   0.000  0.00  0.00    +0.357 C 
ATOM      8  OXT LIG    1       -0.588   1.103   0.000  0.00  0.00    -0.243 OA
BRANCH   7   9
ATOM      9  O   LIG    1       -0.612  -1.115   0.000  0.00  0.00    -0.476 OA
ATOM     10  H   LIG    1       -0.965  -1.456  -0.798  0.00  0.00    +0.295 HD
ENDBRANCH   7   9
ENDBRANCH   1   7
TORSDOF 2
