REMARK  Name = DB16346
REMARK                            x       y       z     vdW  Elec       q    Type
REMARK                         _______ _______ _______ _____ _____    ______ ____
ROOT
ATOM      1  C   LIG    1        1.467  -0.010   0.009  0.00  0.00    -0.033 A 
ATOM      2  C   LIG    1        2.088  -0.544   1.142  0.00  0.00    +0.008 A 
ATOM      3  C   LIG    1        3.477  -0.595   1.225  0.00  0.00    +0.046 A 
ATOM      4  C   LIG    1        4.266  -0.109   0.171  0.00  0.00    +0.121 A 
ATOM      5  C   LIG    1        3.643   0.421  -0.959  0.00  0.00    +0.046 A 
ATOM      6  C   LIG    1        2.255   0.473  -1.042  0.00  0.00    +0.008 A 
ENDROOT
BRANCH   1   7
ATOM      7  C   LIG    1       -0.069   0.056  -0.060  0.00  0.00    +0.131 C 
BRANCH   7   8
ATOM      8  C   LIG    1       -0.613   1.524  -0.174  0.00  0.00    +0.007 C 
ATOM      9  C   LIG    1       -2.158   1.643  -0.181  0.00  0.00    +0.004 C 
ATOM     10  C   LIG    1       -2.499   2.873   0.659  0.00  0.00    +0.000 C 
ATOM     11  C   LIG    1       -1.417   2.886   1.731  0.00  0.00    +0.000 C 
ATOM     12  C   LIG    1       -0.153   2.443   0.988  0.00  0.00    +0.004 C 
ENDBRANCH   7   8
BRANCH   7  13
ATOM     13  C   LIG    1       -0.569  -0.919  -1.172  0.00  0.00    +0.312 C 
ATOM     14  O   LIG    1       -0.924  -0.459  -2.284  0.00  0.00    -0.250 OA
BRANCH  13  15
ATOM     15  O   LIG    1       -0.583  -2.140  -0.892  0.00  0.00    -0.480 OA
ATOM     16  H   LIG    1       -0.782  -2.419  -0.020  0.00  0.00    +0.295 HD
ENDBRANCH  13  15
ENDBRANCH   7  13
ENDBRANCH   1   7
BRANCH   4  17
ATOM     17  O   LIG    1        5.648  -0.114   0.165  0.00  0.00    -0.486 OA
BRANCH  17  18
ATOM     18  C   LIG    1        6.351  -0.613   1.302  0.00  0.00    +0.284 C 
BRANCH  18  19
ATOM     19  C   LIG    1        7.850  -0.522   1.059  0.00  0.00    +0.079 A 
ATOM     20  C   LIG    1        8.407  -0.919  -0.158  0.00  0.00    +0.027 A 
ATOM     21  C   LIG    1        9.785  -0.822  -0.334  0.00  0.00    +0.012 A 
ATOM     22  C   LIG    1       10.589  -0.324   0.721  0.00  0.00    +0.000 A 
ATOM     23  C   LIG    1       11.995  -0.192   0.616  0.00  0.00    +0.010 A 
ATOM     24  C   LIG    1       12.732   0.305   1.689  0.00  0.00    +0.001 A 
ATOM     25  C   LIG    1       12.100   0.677   2.872  0.00  0.00    +0.002 A 
ATOM     26  C   LIG    1       10.718   0.558   3.007  0.00  0.00    +0.028 A 
ATOM     27  C   LIG    1        9.939   0.057   1.936  0.00  0.00    +0.071 A 
ATOM     28  N   LIG    1        8.590  -0.048   2.094  0.00  0.00    -0.248 NA
ENDBRANCH  18  19
ENDBRANCH  17  18
ENDBRANCH   4  17
TORSDOF 7
