REMARK  Name = DB16272
REMARK                            x       y       z     vdW  Elec       q    Type
REMARK                         _______ _______ _______ _____ _____    ______ ____
ROOT
ATOM      1  C   LIG    1       -0.606   1.177   0.015  0.00  0.00    +0.062 A 
ATOM      2  C   LIG    1       -0.040  -0.120   0.097  0.00  0.00    +0.083 A 
ATOM      3  N   LIG    1       -0.815  -1.236   0.182  0.00  0.00    -0.251 NA
ATOM      4  C   LIG    1       -2.166  -1.111   0.208  0.00  0.00    +0.045 A 
ATOM      5  C   LIG    1       -2.797   0.132   0.149  0.00  0.00    +0.024 A 
ATOM      6  C   LIG    1       -2.007   1.276   0.051  0.00  0.00    +0.017 A 
ENDROOT
BRANCH   4   7
ATOM      7  C   LIG    1       -2.968  -2.410   0.300  0.00  0.00    +0.041 C 
ATOM      8  C   LIG    1       -2.811  -3.301  -0.962  0.00  0.00    +0.029 C 
ATOM      9  C   LIG    1       -3.537  -4.661  -0.811  0.00  0.00    +0.108 C 
ATOM     10  N   LIG    1       -3.028  -5.291   0.421  0.00  0.00    -0.298 N 
ATOM     11  C   LIG    1       -1.970  -6.154   0.355  0.00  0.00    +0.239 C 
ATOM     12  O   LIG    1       -1.500  -6.524  -0.725  0.00  0.00    -0.271 OA
ATOM     13  C   LIG    1       -3.440  -4.552   1.632  0.00  0.00    +0.108 C 
ATOM     14  C   LIG    1       -2.696  -3.197   1.611  0.00  0.00    +0.029 C 
BRANCH  11  15
ATOM     15  C   LIG    1       -1.442  -6.673   1.604  0.00  0.00    +0.060 C 
ATOM     16  C   LIG    1       -0.220  -7.231   1.697  0.00  0.00    +0.013 C 
ENDBRANCH  11  15
ENDBRANCH   4   7
BRANCH   2  17
ATOM     17  C   LIG    1        1.422  -0.419   0.131  0.00  0.00    +0.001 A 
ATOM     18  C   LIG    1        1.991  -1.286  -0.809  0.00  0.00    +0.013 A 
ATOM     19  C   LIG    1        3.353  -1.571  -0.776  0.00  0.00    +0.047 A 
ATOM     20  C   LIG    1        4.165  -1.006   0.206  0.00  0.00    +0.128 A 
ATOM     21  C   LIG    1        3.606  -0.127   1.142  0.00  0.00    +0.047 A 
ATOM     22  C   LIG    1        2.244   0.155   1.107  0.00  0.00    +0.013 A 
BRANCH  20  23
ATOM     23  O   LIG    1        5.512  -1.306   0.176  0.00  0.00    -0.456 OA
BRANCH  23  24
ATOM     24  C   LIG    1        6.253  -1.391   1.335  0.00  0.00    +0.128 A 
ATOM     25  C   LIG    1        7.513  -0.792   1.357  0.00  0.00    +0.046 A 
ATOM     26  C   LIG    1        8.305  -0.874   2.499  0.00  0.00    +0.004 A 
ATOM     27  C   LIG    1        7.838  -1.564   3.615  0.00  0.00    +0.000 A 
ATOM     28  C   LIG    1        6.588  -2.179   3.597  0.00  0.00    +0.004 A 
ATOM     29  C   LIG    1        5.797  -2.099   2.454  0.00  0.00    +0.046 A 
ENDBRANCH  23  24
ENDBRANCH  20  23
ENDBRANCH   2  17
BRANCH   1  33
ATOM     30  N   LIG    1       -0.192   3.519   0.500  0.00  0.00    -0.325 N 
ATOM     31  H   LIG    1       -1.023   3.484   1.073  0.00  0.00    +0.145 HD
ATOM     32  H   LIG    1        0.327   4.381   0.429  0.00  0.00    +0.145 HD
ATOM     33  C   LIG    1        0.229   2.429  -0.151  0.00  0.00    +0.244 C 
ATOM     34  O   LIG    1        1.246   2.442  -0.842  0.00  0.00    -0.270 OA
ENDBRANCH   1  33
TORSDOF 6
