REMARK  Name = DB16016
REMARK                            x       y       z     vdW  Elec       q    Type
REMARK                         _______ _______ _______ _____ _____    ______ ____
ROOT
ATOM      1  C   LIG    1        0.042   0.022   0.029  0.00  0.00    +0.118 C 
ENDROOT
BRANCH   1   4
ATOM      2  O   LIG    1       -0.244   1.456   2.329  0.00  0.00    -0.275 OA
ATOM      3  C   LIG    1       -0.562   2.008   1.272  0.00  0.00    +0.222 C 
ATOM      4  N   LIG    1       -0.478   1.417   0.031  0.00  0.00    -0.242 N 
ATOM      5  C   LIG    1       -0.805   1.923  -1.207  0.00  0.00    +0.222 C 
ATOM      6  O   LIG    1       -0.689   1.302  -2.267  0.00  0.00    -0.275 OA
ATOM      7  C   LIG    1       -1.372   3.359  -1.219  0.00  0.00    +0.097 C 
ATOM      8  C   LIG    1       -0.876   4.180  -0.026  0.00  0.00    +0.018 C 
ATOM      9  C   LIG    1       -1.117   3.449   1.298  0.00  0.00    +0.097 C 
ENDBRANCH   1   4
BRANCH   1  10
ATOM     10  C   LIG    1        1.577  -0.063  -0.117  0.00  0.00    +0.045 C 
BRANCH  10  11
ATOM     11  C   LIG    1        2.077  -1.489  -0.050  0.00  0.00    +0.059 C 
ATOM     12  N   LIG    1        1.936  -2.266   1.093  0.00  0.00    -0.290 NA
ATOM     13  H   LIG    1        1.502  -1.956   1.951  0.00  0.00    +0.124 HD
ATOM     14  C   LIG    1        2.475  -3.515   0.884  0.00  0.00    +0.155 C 
ATOM     15  N   LIG    1        2.962  -3.533  -0.401  0.00  0.00    -0.293 NA
ATOM     16  H   LIG    1        3.418  -4.317  -0.847  0.00  0.00    +0.124 HD
ATOM     17  C   LIG    1        2.726  -2.298  -0.983  0.00  0.00    +0.096 C 
ENDBRANCH  10  11
ENDBRANCH   1  10
TORSDOF 3
