REMARK  Name = DB16056
REMARK                            x       y       z     vdW  Elec       q    Type
REMARK                         _______ _______ _______ _____ _____    ______ ____
ROOT
ATOM      1  C   LIG    1        5.247  -0.752   0.601  0.00  0.00    +0.161 C 
ENDROOT
BRANCH   1   2
ATOM      2  N   LIG    1        5.748  -0.013   1.760  0.00  0.00    -0.293 N 
ATOM      3  C   LIG    1        5.420  -0.235   3.084  0.00  0.00    +0.162 A 
ATOM      4  N   LIG    1        4.630  -1.175   3.615  0.00  0.00    -0.235 NA
ATOM      5  C   LIG    1        4.518  -1.118   4.970  0.00  0.00    +0.121 A 
ATOM      6  C   LIG    1        5.153  -0.178   5.797  0.00  0.00    +0.005 A 
ATOM      7  C   LIG    1        5.975   0.791   5.202  0.00  0.00    +0.041 A 
ATOM      8  C   LIG    1        6.113   0.763   3.807  0.00  0.00    +0.110 A 
ATOM      9  N   LIG    1        6.830   1.568   2.965  0.00  0.00    -0.213 NA
ATOM     10  C   LIG    1        6.585   1.094   1.769  0.00  0.00    +0.195 A 
BRANCH   6  11
ATOM     11  C   LIG    1        4.959  -0.206   7.277  0.00  0.00    +0.021 A 
ATOM     12  C   LIG    1        5.298   0.775   8.226  0.00  0.00    +0.143 A 
ATOM     13  N   LIG    1        4.988   0.446   9.460  0.00  0.00    -0.179 NA
ATOM     14  N   LIG    1        4.449  -0.772   9.352  0.00  0.00    -0.274 N 
ATOM     15  C   LIG    1        3.961  -1.444  10.543  0.00  0.00    +0.172 C 
ATOM     16  C   LIG    1        4.394  -1.208   8.055  0.00  0.00    +0.116 A 
ENDBRANCH   6  11
BRANCH  10  17
ATOM     17  N   LIG    1        7.102   1.639   0.627  0.00  0.00    -0.329 N 
ATOM     18  H   LIG    1        6.899   1.257  -0.285  0.00  0.00    +0.145 HD
ATOM     19  H   LIG    1        7.715   2.441   0.660  0.00  0.00    +0.145 HD
ENDBRANCH  10  17
ENDBRANCH   1   2
BRANCH   1  23
ATOM     20  C   LIG    1        1.058   0.018  -0.205  0.00  0.00    +0.162 A 
ATOM     21  C   LIG    1        1.456  -1.236   0.286  0.00  0.00    +0.162 A 
ATOM     22  C   LIG    1        2.818  -1.475   0.543  0.00  0.00    +0.054 A 
ATOM     23  C   LIG    1        3.776  -0.485   0.314  0.00  0.00    -0.024 A 
ATOM     24  C   LIG    1        3.374   0.757  -0.175  0.00  0.00    +0.009 A 
ATOM     25  C   LIG    1        2.029   1.009  -0.431  0.00  0.00    +0.050 A 
BRANCH  21  26
ATOM     26  O   LIG    1        0.461  -2.175   0.493  0.00  0.00    -0.491 OA
ATOM     27  C   LIG    1        0.803  -3.458   1.004  0.00  0.00    +0.277 C 
ENDBRANCH  21  26
BRANCH  20  28
ATOM     28  O   LIG    1       -0.293   0.202  -0.439  0.00  0.00    -0.484 OA
BRANCH  28  29
ATOM     29  C   LIG    1       -0.760   1.456  -0.929  0.00  0.00    +0.264 C 
BRANCH  29  33
ATOM     30  C   LIG    1       -5.036   1.243  -1.494  0.00  0.00    +0.120 A 
ATOM     31  C   LIG    1       -4.170   0.543  -2.349  0.00  0.00    +0.046 A 
ATOM     32  C   LIG    1       -2.792   0.614  -2.164  0.00  0.00    +0.010 A 
ATOM     33  C   LIG    1       -2.265   1.383  -1.125  0.00  0.00    -0.010 A 
ATOM     34  C   LIG    1       -3.121   2.078  -0.269  0.00  0.00    +0.010 A 
ATOM     35  C   LIG    1       -4.498   2.006  -0.456  0.00  0.00    +0.046 A 
BRANCH  30  37
ATOM     36  C   LIG    1       -7.023   0.476  -2.642  0.00  0.00    +0.277 C 
ATOM     37  O   LIG    1       -6.413   1.234  -1.603  0.00  0.00    -0.495 OA
ENDBRANCH  30  37
ENDBRANCH  29  33
ENDBRANCH  28  29
ENDBRANCH  20  28
ENDBRANCH   1  23
TORSDOF 9
