REMARK  Name = DB16840
REMARK                            x       y       z     vdW  Elec       q    Type
REMARK                         _______ _______ _______ _____ _____    ______ ____
ROOT
ATOM      1  C   LIG    1       -0.106   0.252   0.090  0.00  0.00    +0.131 C 
ATOM      2  C   LIG    1       -1.056  -0.702  -0.075  0.00  0.00    +0.019 C 
ATOM      3  C   LIG    1       -2.438  -0.072  -0.245  0.00  0.00    +0.046 C 
ATOM      4  C   LIG    1       -2.188   1.435  -0.035  0.00  0.00    +0.104 C 
ATOM      5  C   LIG    1       -2.054   2.442  -1.212  0.00  0.00    +0.125 C 
ATOM      6  C   LIG    1       -0.562   2.542  -0.787  0.00  0.00    +0.228 C 
ATOM      7  O   LIG    1        0.395   3.243  -1.112  0.00  0.00    -0.275 OA
ATOM      8  C   LIG    1       -3.128  -0.444  -1.572  0.00  0.00    +0.015 C 
ATOM      9  N   LIG    1       -0.721   1.463   0.092  0.00  0.00    -0.260 N 
ENDROOT
BRANCH   5  10
ATOM     10  C   LIG    1       -2.826   3.785  -1.103  0.00  0.00    +0.125 C 
ATOM     11  C   LIG    1       -4.341   3.578  -1.263  0.00  0.00    +0.038 C 
BRANCH  10  12
ATOM     12  O   LIG    1       -2.619   4.458   0.129  0.00  0.00    -0.391 OA
ATOM     13  H   LIG    1       -1.678   4.619   0.235  0.00  0.00    +0.210 HD
ENDBRANCH  10  12
ENDBRANCH   5  10
BRANCH   1  14
ATOM     14  C   LIG    1        1.358   0.165   0.287  0.00  0.00    +0.357 C 
ATOM     15  O   LIG    1        2.060   1.157   0.511  0.00  0.00    -0.243 OA
BRANCH  14  16
ATOM     16  O   LIG    1        1.829  -1.109   0.200  0.00  0.00    -0.423 OA
BRANCH  16  17
ATOM     17  C   LIG    1        3.195  -1.303   0.437  0.00  0.00    +0.473 C 
BRANCH  17  18
ATOM     18  O   LIG    1        3.523  -2.662   0.481  0.00  0.00    -0.427 OA
BRANCH  18  19
ATOM     19  C   LIG    1        3.210  -3.348   1.626  0.00  0.00    +0.315 C 
ATOM     20  O   LIG    1        2.696  -2.861   2.638  0.00  0.00    -0.250 OA
BRANCH  19  21
ATOM     21  C   LIG    1        3.579  -4.856   1.533  0.00  0.00    +0.059 C 
ATOM     22  C   LIG    1        5.109  -4.999   1.338  0.00  0.00    +0.022 C 
ATOM     23  C   LIG    1        3.183  -5.608   2.831  0.00  0.00    +0.022 C 
ATOM     24  C   LIG    1        2.826  -5.504   0.344  0.00  0.00    +0.022 C 
ENDBRANCH  19  21
ENDBRANCH  18  19
ENDBRANCH  17  18
ENDBRANCH  16  17
ENDBRANCH  14  16
ENDBRANCH   1  14
BRANCH   2  25
ATOM     25  S   LIG    1       -0.862  -2.477  -0.166  0.00  0.00    -0.121 S 
BRANCH  25  26
ATOM     26  C   LIG    1       -1.683  -3.010   1.366  0.00  0.00    +0.086 C 
ATOM     27  C   LIG    1       -1.239  -4.354   1.932  0.00  0.00    +0.123 C 
ATOM     28  N   LIG    1       -0.526  -3.679   3.012  0.00  0.00    -0.308 N 
ATOM     29  C   LIG    1       -1.157  -2.410   2.667  0.00  0.00    +0.123 C 
BRANCH  28  30
ATOM     30  C   LIG    1       -0.132  -4.171   4.285  0.00  0.00    +0.152 C 
ATOM     31  S   LIG    1        0.632  -3.002   5.411  0.00  0.00    -0.089 S 
ATOM     32  C   LIG    1        1.332  -4.399   6.291  0.00  0.00    +0.100 C 
ATOM     33  C   LIG    1        0.425  -5.577   5.937  0.00  0.00    +0.155 C 
ATOM     34  N   LIG    1       -0.172  -5.389   4.641  0.00  0.00    -0.263 NA
ENDBRANCH  28  30
ENDBRANCH  25  26
ENDBRANCH   2  25
TORSDOF 11
