REMARK  Name = DB16193
REMARK                            x       y       z     vdW  Elec       q    Type
REMARK                         _______ _______ _______ _____ _____    ______ ____
ROOT
ATOM      1  C   LIG    1       -2.485  -2.459   1.469  0.00  0.00    +0.037 A 
ATOM      2  N   LIG    1       -2.658  -3.817   1.336  0.00  0.00    -0.323 N 
ATOM      3  H   LIG    1       -2.075  -4.324   0.687  0.00  0.00    +0.169 HD
ATOM      4  C   LIG    1       -3.575  -4.589   1.988  0.00  0.00    +0.274 A 
ATOM      5  O   LIG    1       -3.648  -5.796   1.769  0.00  0.00    -0.266 OA
ATOM      6  C   LIG    1       -4.386  -3.793   2.911  0.00  0.00    +0.131 A 
ATOM      7  C   LIG    1       -5.426  -4.096   3.778  0.00  0.00    +0.144 A 
ATOM      8  N   LIG    1       -5.867  -3.035   4.430  0.00  0.00    -0.239 NA
ATOM      9  C   LIG    1       -5.137  -2.028   4.006  0.00  0.00    +0.118 A 
ATOM     10  N   LIG    1       -4.203  -2.428   3.072  0.00  0.00    -0.297 N 
ATOM     11  C   LIG    1       -3.232  -1.731   2.332  0.00  0.00    +0.114 A 
ENDROOT
BRANCH   1  14
ATOM     12  C   LIG    1       -1.955  -3.063  -1.687  0.00  0.00    +0.006 C 
ATOM     13  C   LIG    1       -1.773  -1.745  -0.908  0.00  0.00    -0.024 C 
ATOM     14  C   LIG    1       -1.374  -1.896   0.570  0.00  0.00    +0.022 C 
ATOM     15  C   LIG    1       -0.901  -0.475   0.924  0.00  0.00    -0.068 C 
ATOM     16  N   LIG    1       -0.194   0.051  -0.344  0.00  0.00    +0.385 N 
ATOM     17  H   LIG    1       -0.568   0.971  -0.527  0.00  0.00    -0.081 HD
ATOM     18  C   LIG    1       -0.648  -0.880  -1.492  0.00  0.00    -0.074 C 
BRANCH  16  19
ATOM     19  C   LIG    1        1.345   0.136  -0.198  0.00  0.00    -0.001 C 
BRANCH  19  20
ATOM     20  C   LIG    1        2.114   0.780  -1.351  0.00  0.00    +0.113 A 
ATOM     21  N   LIG    1        3.461   0.596  -1.329  0.00  0.00    -0.242 NA
ATOM     22  C   LIG    1        4.163   1.177  -2.339  0.00  0.00    +0.114 A 
ATOM     23  C   LIG    1        3.550   1.929  -3.344  0.00  0.00    +0.039 A 
ATOM     24  C   LIG    1        2.161   2.066  -3.270  0.00  0.00    +0.114 A 
ATOM     25  N   LIG    1        1.423   1.500  -2.279  0.00  0.00    -0.242 NA
ENDBRANCH  19  20
ENDBRANCH  16  19
ENDBRANCH   1  14
BRANCH   9  26
ATOM     26  C   LIG    1       -5.279  -0.607   4.537  0.00  0.00    +0.060 C 
ATOM     27  C   LIG    1       -6.689  -0.141   4.983  0.00  0.00    +0.039 C 
ATOM     28  C   LIG    1       -6.693   1.223   5.700  0.00  0.00    +0.160 C 
ATOM     29  O   LIG    1       -5.602   1.315   6.609  0.00  0.00    -0.380 OA
ATOM     30  C   LIG    1       -4.344   1.356   5.945  0.00  0.00    +0.160 C 
ATOM     31  C   LIG    1       -4.046   0.017   5.242  0.00  0.00    +0.039 C 
ENDBRANCH   9  26
TORSDOF 4
