REMARK  Name = DB16267
REMARK                            x       y       z     vdW  Elec       q    Type
REMARK                         _______ _______ _______ _____ _____    ______ ____
ROOT
ATOM      1  C   LIG    1       -0.244   1.532  -0.086  0.00  0.00    +0.033 C 
ATOM      2  C   LIG    1        0.079   0.031  -0.191  0.00  0.00    +0.103 C 
ENDROOT
BRANCH   2   3
ATOM      3  C   LIG    1       -0.549  -0.623  -1.432  0.00  0.00    +0.037 A 
ATOM      4  C   LIG    1        0.035  -0.308  -2.749  0.00  0.00    +0.254 A 
ATOM      5  O   LIG    1        0.982   0.452  -2.945  0.00  0.00    -0.268 OA
ATOM      6  N   LIG    1       -0.560  -0.935  -3.797  0.00  0.00    -0.322 N 
ATOM      7  H   LIG    1       -0.159  -0.720  -4.697  0.00  0.00    +0.169 HD
ATOM      8  C   LIG    1       -1.644  -1.826  -3.738  0.00  0.00    +0.049 A 
ATOM      9  C   LIG    1       -2.155  -2.415  -4.895  0.00  0.00    +0.028 A 
ATOM     10  C   LIG    1       -3.231  -3.300  -4.802  0.00  0.00    +0.022 A 
ATOM     11  C   LIG    1       -3.795  -3.597  -3.558  0.00  0.00    +0.042 A 
ATOM     12  C   LIG    1       -3.285  -3.008  -2.398  0.00  0.00    +0.030 A 
ATOM     13 CL   LIG    1       -5.123  -4.693  -3.452  0.00  0.00    -0.084 Cl
ATOM     14  C   LIG    1       -2.209  -2.122  -2.490  0.00  0.00    +0.000 A 
ATOM     15  C   LIG    1       -1.607  -1.468  -1.319  0.00  0.00    +0.020 A 
ENDBRANCH   2   3
BRANCH   2  16
ATOM     16  N   LIG    1        1.508  -0.199   0.009  0.00  0.00    -0.333 N 
ATOM     17  H   LIG    1        2.021   0.658   0.164  0.00  0.00    +0.147 HD
BRANCH  16  18
ATOM     18  C   LIG    1        2.200  -1.397   0.086  0.00  0.00    +0.093 A 
ATOM     19  C   LIG    1        3.671  -1.248   0.147  0.00  0.00    +0.273 A 
ATOM     20  O   LIG    1        4.215  -0.136   0.152  0.00  0.00    -0.266 OA
ATOM     21  N   LIG    1        4.385  -2.437   0.201  0.00  0.00    -0.302 N 
ATOM     22  C   LIG    1        5.855  -2.332   0.256  0.00  0.00    +0.153 C 
ATOM     23  C   LIG    1        3.744  -3.669   0.212  0.00  0.00    +0.123 A 
ATOM     24  C   LIG    1        2.406  -3.816   0.169  0.00  0.00    +0.039 A 
ATOM     25  C   LIG    1        1.604  -2.615   0.103  0.00  0.00    +0.031 A 
BRANCH  23  26
ATOM     26  C   LIG    1        4.571  -4.835   0.270  0.00  0.00    +0.117 C 
ATOM     27  N   LIG    1        5.224  -5.789   0.312  0.00  0.00    -0.189 NA
ENDBRANCH  23  26
ENDBRANCH  16  18
ENDBRANCH   2  16
TORSDOF 4
