REMARK  Name = DB16704
REMARK                            x       y       z     vdW  Elec       q    Type
REMARK                         _______ _______ _______ _____ _____    ______ ____
ROOT
ATOM      1  C   LIG    1       -2.106   1.143   3.655  0.00  0.00    +0.041 C 
ATOM      2  C   LIG    1       -1.903   0.860   2.176  0.00  0.00    -0.046 C 
ATOM      3  C   LIG    1       -2.594  -0.401   1.561  0.00  0.00    +0.189 C 
ATOM      4  N   LIG    1       -2.064  -0.571   0.172  0.00  0.00    -0.266 N 
ATOM      5  C   LIG    1       -0.823  -1.102   0.014  0.00  0.00    +0.331 C 
ATOM      6  N   LIG    1       -0.106   0.022  -0.239  0.00  0.00    -0.128 N 
ATOM      7  C   LIG    1       -0.846   1.265  -0.068  0.00  0.00    +0.150 C 
ATOM      8  O   LIG    1       -0.439  -2.259   0.180  0.00  0.00    -0.250 OA
ATOM      9  C   LIG    1       -2.125   0.658  -0.623  0.00  0.00    +0.139 C 
ATOM     10  C   LIG    1       -1.088   1.628   1.409  0.00  0.00    +0.001 C 
ENDROOT
BRANCH   3  11
ATOM     11  C   LIG    1       -4.138  -0.423   1.590  0.00  0.00    +0.235 C 
ATOM     12  O   LIG    1       -4.791   0.539   1.989  0.00  0.00    -0.274 OA
ATOM     13  N   LIG    1       -4.736  -1.540   1.164  0.00  0.00    -0.328 N 
ATOM     14  H   LIG    1       -4.187  -2.322   0.839  0.00  0.00    +0.145 HD
ATOM     15  H   LIG    1       -5.743  -1.607   1.166  0.00  0.00    +0.145 HD
ENDBRANCH   3  11
BRANCH   6  16
ATOM     16  O   LIG    1        1.250   0.099   0.058  0.00  0.00    -0.096 OA
BRANCH  16  17
ATOM     17  S   LIG    1        2.211   0.004  -1.307  0.00  0.00    +0.227 S 
ATOM     18  O   LIG    1        1.845  -1.195  -2.069  0.00  0.00    -0.116 OA
ATOM     19  O   LIG    1        3.596   0.247  -0.893  0.00  0.00    -0.116 OA
BRANCH  17  20
ATOM     20  O   LIG    1        1.681   1.339  -2.143  0.00  0.00    -0.230 OA
ATOM     21  H   LIG    1        1.234   1.075  -2.970  0.00  0.00    +0.247 HD
ENDBRANCH  17  20
ENDBRANCH  16  17
ENDBRANCH   6  16
TORSDOF 4
