REMARK  Name = DB16200
REMARK                            x       y       z     vdW  Elec       q    Type
REMARK                         _______ _______ _______ _____ _____    ______ ____
ROOT
ATOM      1  C   LIG    1       -2.706   1.065  -0.988  0.00  0.00    +0.121 C 
ATOM      2  C   LIG    1       -2.028  -0.313  -1.049  0.00  0.00    +0.055 C 
ATOM      3  C   LIG    1       -0.478  -0.233  -1.110  0.00  0.00    +0.090 C 
ATOM      4  N   LIG    1        0.071   0.684  -0.084  0.00  0.00    -0.291 NA
ATOM      5  C   LIG    1       -0.610   1.972   0.127  0.00  0.00    +0.088 C 
ATOM      6  C   LIG    1       -2.141   1.828   0.223  0.00  0.00    +0.047 C 
ENDROOT
BRANCH   3   7
ATOM      7  C   LIG    1        0.038  -0.043  -2.548  0.00  0.00    -0.030 A 
ATOM      8  C   LIG    1        0.525  -1.155  -3.241  0.00  0.00    +0.006 A 
ATOM      9  C   LIG    1        0.993  -1.025  -4.545  0.00  0.00    +0.015 A 
ATOM     10  C   LIG    1        0.980   0.221  -5.186  0.00  0.00    +0.059 A 
ATOM     11  C   LIG    1        0.485   1.333  -4.490  0.00  0.00    +0.015 A 
ATOM     12  C   LIG    1        0.017   1.201  -3.186  0.00  0.00    +0.006 A 
BRANCH  10  13
ATOM     13  C   LIG    1        1.491   0.345  -6.603  0.00  0.00    +0.337 C 
ATOM     14  O   LIG    1        1.918  -0.620  -7.236  0.00  0.00    -0.245 OA
BRANCH  13  15
ATOM     15  O   LIG    1        1.446   1.606  -7.127  0.00  0.00    -0.477 OA
ATOM     16  H   LIG    1        1.782   1.636  -8.025  0.00  0.00    +0.295 HD
ENDBRANCH  13  15
ENDBRANCH  10  13
ENDBRANCH   3   7
BRANCH   1  17
ATOM     17  O   LIG    1       -4.118   0.877  -0.923  0.00  0.00    -0.377 OA
BRANCH  17  19
ATOM     18  C   LIG    1       -6.386   1.637  -1.122  0.00  0.00    +0.034 C 
ATOM     19  C   LIG    1       -4.909   2.041  -1.136  0.00  0.00    +0.157 C 
ENDBRANCH  17  19
ENDBRANCH   1  17
BRANCH   4  20
ATOM     20  C   LIG    1        1.535   0.771  -0.074  0.00  0.00    +0.124 C 
BRANCH  20  21
ATOM     21  C   LIG    1        2.084   1.103   1.313  0.00  0.00    +0.017 A 
ATOM     22  C   LIG    1        2.022   0.168   2.363  0.00  0.00    +0.008 A 
ATOM     23  C   LIG    1        1.515  -1.172   2.474  0.00  0.00    +0.028 A 
ATOM     24  C   LIG    1        1.732  -1.589   3.768  0.00  0.00    +0.083 A 
ATOM     25  N   LIG    1        2.346  -0.580   4.463  0.00  0.00    -0.360 N 
ATOM     26  H   LIG    1        2.599  -0.671   5.437  0.00  0.00    +0.165 HD
ATOM     27  C   LIG    1        2.543   0.515   3.645  0.00  0.00    +0.050 A 
ATOM     28  C   LIG    1        3.122   1.759   3.913  0.00  0.00    -0.023 A 
ATOM     29  C   LIG    1        3.692   2.182   5.256  0.00  0.00    +0.046 C 
ATOM     30  C   LIG    1        3.161   2.657   2.843  0.00  0.00    +0.051 A 
ATOM     31  C   LIG    1        2.660   2.360   1.566  0.00  0.00    +0.125 A 
BRANCH  31  32
ATOM     32  O   LIG    1        2.695   3.261   0.515  0.00  0.00    -0.495 OA
ATOM     33  C   LIG    1        3.210   4.572   0.717  0.00  0.00    +0.277 C 
ENDBRANCH  31  32
ENDBRANCH  20  21
ENDBRANCH   4  20
TORSDOF 8
