REMARK  Name = DB16124
REMARK                            x       y       z     vdW  Elec       q    Type
REMARK                         _______ _______ _______ _____ _____    ______ ____
ROOT
ATOM      1  C   LIG    1        1.768   0.794  -0.112  0.00  0.00    +0.122 A 
ATOM      2  C   LIG    1        2.420   0.032  -1.073  0.00  0.00    +0.046 A 
ATOM      3  C   LIG    1        3.799  -0.147  -1.034  0.00  0.00    +0.013 A 
ATOM      4  C   LIG    1        4.597   0.445  -0.007  0.00  0.00    -0.006 A 
ATOM      5  C   LIG    1        6.034   0.311   0.086  0.00  0.00    +0.045 A 
ATOM      6  C   LIG    1        6.693   0.865   1.191  0.00  0.00    +0.014 A 
ATOM      7  C   LIG    1        6.011   1.575   2.168  0.00  0.00    +0.001 A 
ATOM      8  C   LIG    1        4.639   1.752   2.080  0.00  0.00    +0.008 A 
ATOM      9  C   LIG    1        3.910   1.192   1.006  0.00  0.00    -0.014 A 
ATOM     10  C   LIG    1        2.505   1.357   0.933  0.00  0.00    +0.054 A 
ENDROOT
BRANCH   5  11
ATOM     11  C   LIG    1        6.880  -0.403  -0.945  0.00  0.00    +0.249 C 
ATOM     12  N   LIG    1        6.619  -0.084  -2.232  0.00  0.00    -0.280 N 
ATOM     13  H   LIG    1        5.931   0.636  -2.396  0.00  0.00    +0.155 HD
ATOM     14  O   LIG    1        7.783  -1.161  -0.586  0.00  0.00    -0.270 OA
BRANCH  12  15
ATOM     15  C   LIG    1        7.252  -0.584  -3.389  0.00  0.00    +0.055 A 
ATOM     16  C   LIG    1        7.420   0.263  -4.503  0.00  0.00    +0.046 A 
ATOM     17  C   LIG    1        8.017  -0.229  -5.667  0.00  0.00    +0.024 A 
ATOM     18  C   LIG    1        8.441  -1.554  -5.738  0.00  0.00    +0.002 A 
ATOM     19  C   LIG    1        8.265  -2.401  -4.646  0.00  0.00    +0.002 A 
ATOM     20  C   LIG    1        7.670  -1.923  -3.480  0.00  0.00    +0.025 A 
BRANCH  16  21
ATOM     21  N   LIG    1        7.009   1.600  -4.487  0.00  0.00    -0.357 N 
ATOM     22  H   LIG    1        7.132   2.084  -3.610  0.00  0.00    +0.142 HD
ATOM     23  H   LIG    1        7.175   2.119  -5.338  0.00  0.00    +0.142 HD
ENDBRANCH  16  21
ENDBRANCH  12  15
ENDBRANCH   5  11
BRANCH   1  24
ATOM     24  O   LIG    1        0.396   0.911  -0.201  0.00  0.00    -0.481 OA
BRANCH  24  32
ATOM     25  C   LIG    1       -3.696   1.954   2.699  0.00  0.00    +0.107 C 
ATOM     26  C   LIG    1       -3.202   3.182   2.231  0.00  0.00    +0.054 C 
ATOM     27  C   LIG    1       -2.062   3.203   1.398  0.00  0.00    +0.055 C 
ATOM     28  N   LIG    1       -1.556   4.390   0.921  0.00  0.00    -0.303 NA
ATOM     29  H   LIG    1       -2.022   5.247   1.182  0.00  0.00    +0.123 HD
ATOM     30  C   LIG    1       -0.480   4.481   0.121  0.00  0.00    +0.079 C 
ATOM     31  C   LIG    1        0.191   3.326  -0.265  0.00  0.00    +0.064 C 
ATOM     32  C   LIG    1       -0.243   2.071   0.184  0.00  0.00    +0.164 C 
ATOM     33  C   LIG    1       -1.396   1.999   1.021  0.00  0.00    +0.050 C 
ATOM     34  C   LIG    1       -1.923   0.777   1.512  0.00  0.00    +0.012 C 
ATOM     35  C   LIG    1       -3.050   0.773   2.332  0.00  0.00    +0.034 C 
BRANCH  25  37
ATOM     36  C   LIG    1       -5.506   2.990   3.928  0.00  0.00    +0.194 C 
ATOM     37  O   LIG    1       -4.802   1.823   3.516  0.00  0.00    -0.373 OA
ENDBRANCH  25  37
ENDBRANCH  24  32
ENDBRANCH   1  24
TORSDOF 6
