REMARK  Name = DB16906
REMARK                            x       y       z     vdW  Elec       q    Type
REMARK                         _______ _______ _______ _____ _____    ______ ____
ROOT
ATOM      1  C   LIG    1        4.415  -0.480   0.447  0.00  0.00    +0.126 C 
ENDROOT
BRANCH   1   2
ATOM      2  N   LIG    1        5.491  -0.436  -0.550  0.00  0.00    -0.265 NA
ATOM      3  C   LIG    1        5.299  -0.416  -1.927  0.00  0.00    +0.137 C 
ATOM      4  N   LIG    1        6.547  -0.448  -2.504  0.00  0.00    -0.286 NA
ATOM      5  H   LIG    1        6.727  -0.448  -3.499  0.00  0.00    +0.124 HD
ATOM      6  C   LIG    1        7.510  -0.474  -1.518  0.00  0.00    +0.096 C 
ATOM      7  C   LIG    1        6.866  -0.476  -0.286  0.00  0.00    +0.058 C 
ATOM      8  C   LIG    1        7.438  -0.522   1.114  0.00  0.00    +0.031 C 
BRANCH   3   9
ATOM      9  C   LIG    1        4.008  -0.405  -2.668  0.00  0.00    -0.009 A 
ATOM     10  C   LIG    1        3.079   0.617  -2.464  0.00  0.00    +0.007 A 
ATOM     11  C   LIG    1        1.867   0.602  -3.148  0.00  0.00    +0.013 A 
ATOM     12  C   LIG    1        1.569  -0.438  -4.032  0.00  0.00    +0.055 A 
ATOM     13  C   LIG    1        2.507  -1.456  -4.242  0.00  0.00    +0.013 A 
ATOM     14  C   LIG    1        3.725  -1.435  -3.567  0.00  0.00    +0.007 A 
BRANCH  12  15
ATOM     15  C   LIG    1        0.219  -0.448  -4.747  0.00  0.00    +0.417 C 
ATOM     16  F   LIG    1        0.019  -1.566  -5.448  0.00  0.00    -0.166 F 
ATOM     17  F   LIG    1        0.154   0.588  -5.584  0.00  0.00    -0.166 F 
ATOM     18  F   LIG    1       -0.766  -0.338  -3.855  0.00  0.00    -0.166 F 
ENDBRANCH  12  15
ENDBRANCH   3   9
ENDBRANCH   1   2
BRANCH   1  20
ATOM     19  C   LIG    1        2.225  -1.801   0.316  0.00  0.00    +0.125 A 
ATOM     20  C   LIG    1        3.627  -1.793   0.437  0.00  0.00    +0.008 A 
ATOM     21  C   LIG    1        4.324  -3.005   0.534  0.00  0.00    +0.008 A 
ATOM     22  C   LIG    1        3.644  -4.219   0.505  0.00  0.00    +0.001 A 
ATOM     23  C   LIG    1        2.259  -4.235   0.379  0.00  0.00    +0.004 A 
ATOM     24  C   LIG    1        1.554  -3.037   0.286  0.00  0.00    +0.046 A 
BRANCH  19  25
ATOM     25  O   LIG    1        1.576  -0.582   0.229  0.00  0.00    -0.492 OA
BRANCH  25  26
ATOM     26  C   LIG    1        0.171  -0.542  -0.005  0.00  0.00    +0.229 C 
BRANCH  26  27
ATOM     27  C   LIG    1       -0.272   0.927  -0.068  0.00  0.00    +0.041 C 
BRANCH  27  28
ATOM     28  C   LIG    1       -1.759   1.089  -0.444  0.00  0.00    +0.007 C 
BRANCH  28  30
ATOM     29  C   LIG    1       -3.608   2.570  -1.357  0.00  0.00    +0.008 C 
ATOM     30  C   LIG    1       -2.213   2.549  -0.696  0.00  0.00    -0.003 C 
BRANCH  30  31
ATOM     31  C   LIG    1       -2.173   3.417   0.603  0.00  0.00    +0.123 C 
BRANCH  31  32
ATOM     32  C   LIG    1       -2.299   4.945   0.384  0.00  0.00    +0.305 C 
ATOM     33  O   LIG    1       -2.867   5.596   1.289  0.00  0.00    -0.251 OA
BRANCH  32  34
ATOM     34  O   LIG    1       -1.801   5.460  -0.643  0.00  0.00    -0.481 OA
ATOM     35  H   LIG    1       -1.871   6.384  -0.786  0.00  0.00    +0.295 HD
ENDBRANCH  32  34
ENDBRANCH  31  32
ENDBRANCH  30  31
ENDBRANCH  28  30
ENDBRANCH  27  28
ENDBRANCH  26  27
ENDBRANCH  25  26
ENDBRANCH  19  25
ENDBRANCH   1  20
TORSDOF 12
