REMARK  Name = DB16285
REMARK                            x       y       z     vdW  Elec       q    Type
REMARK                         _______ _______ _______ _____ _____    ______ ____
ROOT
ATOM      1  C   LIG    1       -3.477  -0.039  -1.611  0.00  0.00    +0.110 A 
ATOM      2  C   LIG    1       -2.707  -1.151  -1.272  0.00  0.00    +0.058 A 
ATOM      3  C   LIG    1       -1.566  -1.016  -0.470  0.00  0.00    +0.120 A 
ATOM      4  C   LIG    1       -1.193   0.260  -0.000  0.00  0.00    +0.053 A 
ATOM      5  C   LIG    1       -1.990   1.366  -0.334  0.00  0.00    +0.027 A 
ATOM      6  C   LIG    1       -3.117   1.221  -1.138  0.00  0.00    +0.031 A 
ENDROOT
BRANCH   1   7
ATOM      7  S   LIG    1       -4.920  -0.245  -2.650  0.00  0.00    +0.072 S 
ATOM      8  O   LIG    1       -5.392   1.084  -3.058  0.00  0.00    -0.150 OA
ATOM      9  O   LIG    1       -4.585  -1.266  -3.649  0.00  0.00    -0.150 OA
BRANCH   7  10
ATOM     10  N   LIG    1       -6.168  -0.957  -1.609  0.00  0.00    -0.216 N 
ATOM     11  H   LIG    1       -6.350  -1.947  -1.684  0.00  0.00    +0.174 HD
BRANCH  10  15
ATOM     12  C   LIG    1       -8.775   1.390   0.713  0.00  0.00    +0.030 A 
ATOM     13  C   LIG    1       -9.268   0.460  -0.215  0.00  0.00    +0.025 A 
ATOM     14  C   LIG    1       -8.399  -0.318  -0.976  0.00  0.00    +0.026 A 
ATOM     15  C   LIG    1       -7.022  -0.173  -0.826  0.00  0.00    +0.048 A 
ATOM     16  C   LIG    1       -6.515   0.735   0.103  0.00  0.00    +0.026 A 
ATOM     17  C   LIG    1       -7.386   1.509   0.865  0.00  0.00    +0.025 A 
BRANCH  12  21
ATOM     18  N   LIG    1      -11.534   4.014   2.912  0.00  0.00    -0.327 N 
ATOM     19  C   LIG    1      -11.752   2.563   2.815  0.00  0.00    +0.124 C 
ATOM     20  C   LIG    1      -11.063   1.886   1.612  0.00  0.00    +0.124 C 
ATOM     21  N   LIG    1       -9.629   2.177   1.485  0.00  0.00    -0.327 N 
ATOM     22  C   LIG    1       -9.415   3.628   1.579  0.00  0.00    +0.124 C 
ATOM     23  C   LIG    1      -10.099   4.299   2.791  0.00  0.00    +0.124 C 
BRANCH  18  29
ATOM     24  C   LIG    1      -14.646   5.380   4.399  0.00  0.00    -0.010 A 
ATOM     25  C   LIG    1      -14.126   6.239   5.370  0.00  0.00    +0.047 A 
ATOM     26  C   LIG    1      -12.748   6.397   5.498  0.00  0.00    +0.126 A 
ATOM     27  F   LIG    1      -12.249   7.240   6.431  0.00  0.00    -0.205 F 
ATOM     28  C   LIG    1      -11.882   5.676   4.677  0.00  0.00    +0.061 A 
ATOM     29  C   LIG    1      -12.377   4.778   3.717  0.00  0.00    +0.033 A 
ATOM     30  C   LIG    1      -13.768   4.662   3.581  0.00  0.00    +0.032 A 
BRANCH  24  33
ATOM     31  N   LIG    1      -18.104   4.074   4.305  0.00  0.00    -0.339 N 
ATOM     32  C   LIG    1      -16.732   3.919   4.430  0.00  0.00    +0.059 A 
ATOM     33  C   LIG    1      -16.117   5.160   4.277  0.00  0.00    +0.033 A 
ATOM     34  C   LIG    1      -17.133   6.087   3.981  0.00  0.00    +0.117 A 
ATOM     35  C   LIG    1      -18.355   5.412   4.021  0.00  0.00    +0.042 A 
ATOM     36  C   LIG    1      -19.754   5.966   3.809  0.00  0.00    +0.065 C 
BRANCH  32  37
ATOM     37  C   LIG    1      -16.055   2.615   4.702  0.00  0.00    -0.001 A 
ATOM     38  C   LIG    1      -15.362   2.431   5.901  0.00  0.00    +0.011 A 
ATOM     39  C   LIG    1      -14.686   1.237   6.138  0.00  0.00    +0.020 A 
ATOM     40  C   LIG    1      -14.701   0.232   5.173  0.00  0.00    +0.041 A 
ATOM     41 CL   LIG    1      -13.855  -1.245   5.463  0.00  0.00    -0.084 Cl
ATOM     42  C   LIG    1      -15.387   0.410   3.973  0.00  0.00    +0.020 A 
ATOM     43  C   LIG    1      -16.063   1.604   3.736  0.00  0.00    +0.011 A 
ENDBRANCH  32  37
BRANCH  34  44
ATOM     44  S   LIG    1      -16.938   7.856   3.577  0.00  0.00    -0.004 S 
ATOM     45  O   LIG    1      -15.535   8.230   3.780  0.00  0.00    -0.170 OA
ATOM     46  O   LIG    1      -18.012   8.571   4.274  0.00  0.00    -0.170 OA
ATOM     47  C   LIG    1      -17.288   7.880   1.723  0.00  0.00    +0.200 C 
ENDBRANCH  34  44
BRANCH  31  49
ATOM     48  C   LIG    1      -19.631   2.511   3.088  0.00  0.00    +0.030 C 
ATOM     49  C   LIG    1      -19.088   2.974   4.455  0.00  0.00    +0.081 C 
ATOM     50  C   LIG    1      -20.188   3.289   5.489  0.00  0.00    +0.030 C 
ENDBRANCH  31  49
ENDBRANCH  24  33
ENDBRANCH  18  29
ENDBRANCH  12  21
ENDBRANCH  10  15
ENDBRANCH   7  10
ENDBRANCH   1   7
BRANCH   3  51
ATOM     51  S   LIG    1       -0.620  -2.510  -0.090  0.00  0.00    +0.093 S 
ATOM     52  O   LIG    1        0.806  -2.168  -0.162  0.00  0.00    -0.161 OA
ATOM     53  O   LIG    1       -1.145  -3.593  -0.930  0.00  0.00    -0.161 OA
BRANCH  51  54
ATOM     54  C   LIG    1       -1.070  -2.901   1.713  0.00  0.00    +0.526 C 
ATOM     55  F   LIG    1       -2.397  -2.994   1.799  0.00  0.00    -0.150 F 
ATOM     56  F   LIG    1       -0.614  -1.923   2.493  0.00  0.00    -0.150 F 
ATOM     57  F   LIG    1       -0.497  -4.059   2.037  0.00  0.00    -0.150 F 
ENDBRANCH  51  54
ENDBRANCH   3  51
BRANCH   4  58
ATOM     58  N   LIG    1       -0.045   0.410   0.802  0.00  0.00    -0.339 N 
ATOM     59  H   LIG    1        0.460  -0.435   1.028  0.00  0.00    +0.146 HD
BRANCH  58  60
ATOM     60  C   LIG    1        0.717   1.657   0.907  0.00  0.00    +0.079 C 
BRANCH  60  61
ATOM     61  C   LIG    1        1.853   1.503   1.946  0.00  0.00    +0.096 C 
BRANCH  61  62
ATOM     62  S   LIG    1        2.705   3.033   2.444  0.00  0.00    -0.123 S 
BRANCH  62  63
ATOM     63  C   LIG    1        4.032   3.305   1.307  0.00  0.00    +0.008 A 
ATOM     64  C   LIG    1        4.929   2.277   1.009  0.00  0.00    +0.015 A 
ATOM     65  C   LIG    1        5.976   2.511   0.121  0.00  0.00    +0.001 A 
ATOM     66  C   LIG    1        6.123   3.771  -0.458  0.00  0.00    +0.000 A 
ATOM     67  C   LIG    1        5.233   4.800  -0.155  0.00  0.00    +0.001 A 
ATOM     68  C   LIG    1        4.186   4.567   0.733  0.00  0.00    +0.015 A 
ENDBRANCH  62  63
ENDBRANCH  61  62
ENDBRANCH  60  61
BRANCH  60  69
ATOM     69  C   LIG    1        1.215   2.184  -0.467  0.00  0.00    +0.004 C 
BRANCH  69  70
ATOM     70  C   LIG    1        2.115   1.200  -1.247  0.00  0.00    -0.077 C 
BRANCH  70  71
ATOM     71  N   LIG    1        2.341   1.690  -2.696  0.00  0.00    +0.380 N 
ATOM     72  H   LIG    1        1.444   1.936  -3.091  0.00  0.00    -0.082 HD
ATOM     73  C   LIG    1        3.247   2.947  -2.749  0.00  0.00    -0.078 C 
ATOM     74  C   LIG    1        3.357   3.410  -4.211  0.00  0.00    -0.004 C 
ATOM     75  C   LIG    1        3.932   2.277  -5.092  0.00  0.00    +0.094 C 
ATOM     76  C   LIG    1        3.027   1.026  -5.013  0.00  0.00    -0.004 C 
ATOM     77  C   LIG    1        2.916   0.539  -3.559  0.00  0.00    -0.078 C 
BRANCH  75  78
ATOM     78  C   LIG    1        4.052   2.760  -6.549  0.00  0.00    +0.310 C 
ATOM     79  O   LIG    1        5.150   2.846  -7.100  0.00  0.00    -0.251 OA
BRANCH  78  80
ATOM     80  O   LIG    1        2.857   3.063  -7.108  0.00  0.00    -0.464 OA
BRANCH  80  81
ATOM     81  C   LIG    1        2.769   3.559  -8.434  0.00  0.00    +0.232 C 
BRANCH  81  82
ATOM     82  C   LIG    1        1.304   3.822  -8.832  0.00  0.00    +0.053 C 
BRANCH  82  83
ATOM     83  C   LIG    1        0.572   4.877  -7.972  0.00  0.00    +0.130 C 
BRANCH  83  84
ATOM     84  P   LIG    1       -0.499   4.172  -6.588  0.00  0.00    +0.328 P 
ATOM     85  O   LIG    1        0.228   3.060  -5.867  0.00  0.00    -0.259 OA
BRANCH  84  86
ATOM     86  O   LIG    1       -1.676   3.450  -7.603  0.00  0.00    -0.324 OA
ATOM     87  H   LIG    1       -2.443   3.931  -7.967  0.00  0.00    +0.220 HD
ENDBRANCH  84  86
BRANCH  84  88
ATOM     88  O   LIG    1       -1.163   5.317  -5.859  0.00  0.00    -0.324 OA
ATOM     89  H   LIG    1       -1.570   5.918  -6.503  0.00  0.00    +0.220 HD
ENDBRANCH  84  88
ENDBRANCH  83  84
ENDBRANCH  82  83
ENDBRANCH  81  82
ENDBRANCH  80  81
ENDBRANCH  78  80
ENDBRANCH  75  78
ENDBRANCH  70  71
ENDBRANCH  69  70
ENDBRANCH  60  69
ENDBRANCH  58  60
ENDBRANCH   4  58
TORSDOF 27
