REMARK  Name = DB16250
REMARK                            x       y       z     vdW  Elec       q    Type
REMARK                         _______ _______ _______ _____ _____    ______ ____
ROOT
ATOM      1  N   LIG    1        5.610  -1.845   1.404  0.00  0.00    -0.306 N 
ATOM      2  C   LIG    1        6.544  -1.224   2.251  0.00  0.00    +0.087 A 
ATOM      3  C   LIG    1        6.479  -0.269   3.288  0.00  0.00    +0.067 A 
ATOM      4  C   LIG    1        7.653   0.129   3.936  0.00  0.00    +0.022 A 
ATOM      5  C   LIG    1        8.886  -0.406   3.569  0.00  0.00    +0.004 A 
ATOM      6  C   LIG    1        8.959  -1.347   2.546  0.00  0.00    +0.028 A 
ATOM      7 CL   LIG    1        5.010   0.465   3.826  0.00  0.00    -0.081 Cl
ATOM      8  C   LIG    1        7.791  -1.746   1.898  0.00  0.00    +0.067 A 
ATOM      9  N   LIG    1        7.600  -2.650   0.865  0.00  0.00    -0.326 N 
ATOM     10  H   LIG    1        8.339  -3.173   0.416  0.00  0.00    +0.169 HD
ATOM     11  C   LIG    1        6.238  -2.761   0.498  0.00  0.00    +0.202 A 
ATOM     12  N   LIG    1        5.672  -3.479  -0.402  0.00  0.00    -0.142 NA
ENDROOT
BRANCH   1  16
ATOM     13  C   LIG    1        1.775   0.431   0.564  0.00  0.00    +0.239 C 
ATOM     14  N   LIG    1        2.272  -0.684  -0.053  0.00  0.00    -0.296 N 
ATOM     15  C   LIG    1        3.703  -1.003   0.029  0.00  0.00    +0.133 C 
ATOM     16  C   LIG    1        4.146  -1.636   1.379  0.00  0.00    +0.108 C 
ATOM     17  C   LIG    1        3.373  -2.921   1.808  0.00  0.00    +0.027 C 
ATOM     18  C   LIG    1        1.857  -2.732   2.041  0.00  0.00    +0.004 C 
ATOM     19  C   LIG    1        0.965  -2.703   0.776  0.00  0.00    +0.019 C 
ATOM     20  C   LIG    1        1.482  -1.871  -0.419  0.00  0.00    +0.108 C 
ATOM     21  O   LIG    1        2.508   1.227   1.159  0.00  0.00    -0.271 OA
BRANCH  13  23
ATOM     22  C   LIG    1       -0.306   1.526   1.283  0.00  0.00    -0.007 C 
ATOM     23  C   LIG    1        0.347   0.676   0.461  0.00  0.00    +0.064 C 
BRANCH  22  24
ATOM     24  C   LIG    1       -1.796   1.849   1.257  0.00  0.00    +0.111 C 
BRANCH  24  26
ATOM     25  C   LIG    1       -3.890   1.863   0.081  0.00  0.00    +0.104 C 
ATOM     26  N   LIG    1       -2.635   1.146   0.281  0.00  0.00    -0.305 NA
ATOM     27  C   LIG    1       -2.920  -0.218   0.722  0.00  0.00    +0.104 C 
ENDBRANCH  24  26
ENDBRANCH  22  24
ENDBRANCH  13  23
ENDBRANCH   1  16
BRANCH  12  28
ATOM     28  C   LIG    1        6.333  -4.349  -1.267  0.00  0.00    +0.270 C 
ATOM     29  O   LIG    1        7.557  -4.527  -1.292  0.00  0.00    -0.268 OA
BRANCH  28  30
ATOM     30  C   LIG    1        5.422  -5.085  -2.232  0.00  0.00    +0.042 A 
ATOM     31  C   LIG    1        4.019  -4.953  -2.192  0.00  0.00    +0.036 A 
ATOM     32  C   LIG    1        3.238  -5.658  -3.112  0.00  0.00    +0.039 A 
ATOM     33  C   LIG    1        1.725  -5.548  -3.110  0.00  0.00    +0.065 C 
ATOM     34  N   LIG    1        3.771  -6.475  -4.056  0.00  0.00    -0.260 NA
ATOM     35  C   LIG    1        5.120  -6.602  -4.091  0.00  0.00    +0.112 A 
ATOM     36  C   LIG    1        5.970  -5.934  -3.208  0.00  0.00    +0.033 A 
ENDBRANCH  28  30
ENDBRANCH  12  28
TORSDOF 6
