REMARK  Name = DB16037
REMARK                            x       y       z     vdW  Elec       q    Type
REMARK                         _______ _______ _______ _____ _____    ______ ____
ROOT
ATOM      1  C   LIG    1        1.782   1.214   0.168  0.00  0.00    +0.268 C 
ENDROOT
BRANCH   1   2
ATOM      2  C   LIG    1        2.746   0.113   0.704  0.00  0.00    +0.257 C 
ATOM      3  N   LIG    1        2.777  -1.100   0.084  0.00  0.00    -0.298 N 
ATOM      4  C   LIG    1        3.731  -2.132   0.520  0.00  0.00    +0.109 C 
ATOM      5  C   LIG    1        5.043  -1.903  -0.271  0.00  0.00    +0.038 C 
ATOM      6  C   LIG    1        4.833  -1.839  -1.812  0.00  0.00    +0.060 C 
ATOM      7  C   LIG    1        3.583  -0.993  -2.205  0.00  0.00    +0.038 C 
ATOM      8  C   LIG    1        2.355  -1.286  -1.313  0.00  0.00    +0.109 C 
ATOM      9  O   LIG    1        3.339   0.313   1.769  0.00  0.00    -0.272 OA
BRANCH   6  10
ATOM     10  N   LIG    1        6.065  -1.614  -2.582  0.00  0.00    -0.295 NA
ATOM     11  C   LIG    1        5.960  -2.053  -3.981  0.00  0.00    +0.113 C 
ATOM     12  C   LIG    1        7.295  -1.859  -4.730  0.00  0.00    +0.175 C 
ATOM     13  O   LIG    1        7.728  -0.508  -4.616  0.00  0.00    -0.377 OA
ATOM     14  C   LIG    1        7.931  -0.116  -3.262  0.00  0.00    +0.175 C 
ATOM     15  C   LIG    1        6.617  -0.256  -2.464  0.00  0.00    +0.113 C 
ENDBRANCH   6  10
ENDBRANCH   1   2
BRANCH   1  16
ATOM     16  C   LIG    1        0.317   0.902   0.562  0.00  0.00    +0.089 C 
BRANCH  16  23
ATOM     17  C   LIG    1       -2.439   5.111   1.004  0.00  0.00    +0.047 C 
ATOM     18  C   LIG    1       -2.002   3.915   0.170  0.00  0.00    -0.009 A 
ATOM     19  C   LIG    1       -2.487   3.725  -1.134  0.00  0.00    +0.123 A 
ATOM     20  C   LIG    1       -2.068   2.614  -1.884  0.00  0.00    -0.009 A 
ATOM     21  C   LIG    1       -2.578   2.384  -3.300  0.00  0.00    +0.047 C 
ATOM     22  C   LIG    1       -1.167   1.704  -1.325  0.00  0.00    +0.010 A 
ATOM     23  C   LIG    1       -0.681   1.889  -0.029  0.00  0.00    -0.043 A 
ATOM     24  C   LIG    1       -1.103   2.994   0.713  0.00  0.00    +0.010 A 
BRANCH  19  25
ATOM     25  O   LIG    1       -3.371   4.627  -1.677  0.00  0.00    -0.506 OA
ATOM     26  H   LIG    1       -3.633   4.399  -2.571  0.00  0.00    +0.292 HD
ENDBRANCH  19  25
ENDBRANCH  16  23
ENDBRANCH   1  16
BRANCH   1  27
ATOM     27  O   LIG    1        2.108   2.509   0.703  0.00  0.00    -0.437 OA
BRANCH  27  28
ATOM     28  C   LIG    1        3.252   3.193   0.390  0.00  0.00    +0.404 C 
ATOM     29  N   LIG    1        3.408   4.336   1.193  0.00  0.00    -0.267 N 
ATOM     30  C   LIG    1        4.726   4.969   1.282  0.00  0.00    +0.113 C 
ATOM     31  C   LIG    1        5.399   4.368   2.539  0.00  0.00    +0.041 C 
ATOM     32  C   LIG    1        4.519   4.422   3.823  0.00  0.00    +0.081 C 
ATOM     33  C   LIG    1        3.025   4.074   3.557  0.00  0.00    +0.041 C 
ATOM     34  C   LIG    1        2.459   4.692   2.258  0.00  0.00    +0.113 C 
ATOM     35  O   LIG    1        4.038   2.827  -0.488  0.00  0.00    -0.226 OA
BRANCH  32  36
ATOM     36  N   LIG    1        5.097   3.751   5.005  0.00  0.00    -0.282 N 
ATOM     37  C   LIG    1        5.118   4.410   6.193  0.00  0.00    +0.307 C 
ATOM     38  O   LIG    1        4.350   5.332   6.471  0.00  0.00    -0.252 OA
ATOM     39  N   LIG    1        6.050   4.013   7.091  0.00  0.00    -0.269 N 
ATOM     40  H   LIG    1        5.911   4.498   7.965  0.00  0.00    +0.156 HD
ATOM     41  C   LIG    1        7.293   3.345   7.062  0.00  0.00    +0.038 A 
ATOM     42  C   LIG    1        8.172   3.640   8.114  0.00  0.00    +0.023 A 
ATOM     43  C   LIG    1        9.445   3.084   8.188  0.00  0.00    +0.002 A 
ATOM     44  C   LIG    1        9.877   2.220   7.193  0.00  0.00    +0.000 A 
ATOM     45  C   LIG    1        9.031   1.919   6.131  0.00  0.00    +0.005 A 
ATOM     46  C   LIG    1        7.741   2.462   6.042  0.00  0.00    -0.025 A 
ATOM     47  C   LIG    1        6.910   2.079   4.824  0.00  0.00    +0.056 C 
ATOM     48  C   LIG    1        5.412   2.325   4.923  0.00  0.00    +0.114 C 
ENDBRANCH  32  36
ENDBRANCH  27  28
ENDBRANCH   1  27
TORSDOF 8
