REMARK  Name = DB16944
REMARK                            x       y       z     vdW  Elec       q    Type
REMARK                         _______ _______ _______ _____ _____    ______ ____
ROOT
ATOM      1  C   LIG    1       -4.406  -1.183  -1.756  0.00  0.00    +0.120 A 
ATOM      2  C   LIG    1       -3.116  -0.660  -1.857  0.00  0.00    +0.048 A 
ATOM      3  C   LIG    1       -2.027  -1.262  -1.218  0.00  0.00    -0.047 A 
ATOM      4  C   LIG    1       -0.610  -0.711  -1.360  0.00  0.00    -0.041 C 
ATOM      5  N   LIG    1       -0.019  -0.051  -0.086  0.00  0.00    +0.386 N 
ATOM      6  H   LIG    1       -0.333   0.909  -0.133  0.00  0.00    -0.081 HD
ATOM      7  C   LIG    1       -0.545  -0.540   1.289  0.00  0.00    -0.067 C 
ATOM      8  C   LIG    1       -0.396  -2.050   1.599  0.00  0.00    +0.056 C 
ATOM      9  S   LIG    1       -0.873  -3.246   0.309  0.00  0.00    -0.127 S 
ATOM     10  C   LIG    1       -2.241  -2.437  -0.473  0.00  0.00    +0.009 A 
ATOM     11  C   LIG    1       -3.525  -2.974  -0.377  0.00  0.00    +0.018 A 
ATOM     12  C   LIG    1       -4.601  -2.353  -1.006  0.00  0.00    +0.047 A 
ENDROOT
BRANCH   1  14
ATOM     13  C   LIG    1       -6.744  -0.989  -2.343  0.00  0.00    +0.277 C 
ATOM     14  O   LIG    1       -5.409  -0.500  -2.416  0.00  0.00    -0.495 OA
ENDBRANCH   1  14
BRANCH   5  15
ATOM     15  C   LIG    1        1.525   0.016  -0.130  0.00  0.00    -0.043 C 
BRANCH  15  16
ATOM     16  C   LIG    1        2.087   0.774  -1.324  0.00  0.00    -0.064 A 
ATOM     17  C   LIG    1        2.042   2.166  -1.349  0.00  0.00    +0.002 A 
ATOM     18  C   LIG    1        2.560   2.861  -2.437  0.00  0.00    +0.015 A 
ATOM     19  C   LIG    1        3.142   2.183  -3.527  0.00  0.00    +0.059 A 
ATOM     20  C   LIG    1        3.183   0.776  -3.474  0.00  0.00    +0.015 A 
ATOM     21  C   LIG    1        2.665   0.080  -2.386  0.00  0.00    +0.002 A 
BRANCH  19  22
ATOM     22  C   LIG    1        3.704   2.941  -4.713  0.00  0.00    +0.337 C 
ATOM     23  O   LIG    1        3.635   4.194  -4.717  0.00  0.00    -0.245 OA
BRANCH  22  24
ATOM     24  O   LIG    1        4.220   2.294  -5.655  0.00  0.00    -0.477 OA
ATOM     25  H   LIG    1        4.573   2.746  -6.396  0.00  0.00    +0.295 HD
ENDBRANCH  22  24
ENDBRANCH  19  22
ENDBRANCH  15  16
ENDBRANCH   5  15
TORSDOF 5
