REMARK  Name = DB16078
REMARK                            x       y       z     vdW  Elec       q    Type
REMARK                         _______ _______ _______ _____ _____    ______ ____
ROOT
ATOM      1  C   LIG    1        1.476  -0.027   0.232  0.00  0.00    -0.003 A 
ATOM      2  C   LIG    1        2.311  -0.535  -0.773  0.00  0.00    +0.149 A 
ATOM      3  C   LIG    1        3.644  -0.267  -0.457  0.00  0.00    +0.117 A 
ATOM      4  N   LIG    1        3.641   0.432   0.737  0.00  0.00    -0.214 N 
ATOM      5  C   LIG    1        2.339   0.518   1.168  0.00  0.00    +0.118 A 
ENDROOT
BRANCH   3   6
ATOM      6  C   LIG    1        4.862  -0.641  -1.232  0.00  0.00    +0.039 A 
ATOM      7  C   LIG    1        5.806  -1.510  -0.671  0.00  0.00    +0.016 A 
ATOM      8  C   LIG    1        6.937  -1.884  -1.395  0.00  0.00    +0.039 A 
ATOM      9  C   LIG    1        7.128  -1.401  -2.688  0.00  0.00    +0.126 A 
ATOM     10  F   LIG    1        8.225  -1.764  -3.391  0.00  0.00    -0.205 F 
ATOM     11  C   LIG    1        6.187  -0.544  -3.258  0.00  0.00    +0.077 A 
ATOM     12  C   LIG    1        5.054  -0.167  -2.536  0.00  0.00    +0.135 A 
ATOM     13  F   LIG    1        4.152   0.667  -3.106  0.00  0.00    -0.205 F 
ENDBRANCH   3   6
BRANCH   4  14
ATOM     14  S   LIG    1        4.996   0.850   1.725  0.00  0.00    +0.084 S 
ATOM     15  O   LIG    1        6.119   1.124   0.820  0.00  0.00    -0.148 OA
ATOM     16  O   LIG    1        5.072  -0.193   2.754  0.00  0.00    -0.148 OA
BRANCH  14  17
ATOM     17  C   LIG    1        4.545   2.401   2.500  0.00  0.00    +0.114 A 
ATOM     18  C   LIG    1        4.649   3.592   1.776  0.00  0.00    +0.029 A 
ATOM     19  C   LIG    1        4.288   4.803   2.367  0.00  0.00    +0.005 A 
ATOM     20  C   LIG    1        3.820   4.827   3.681  0.00  0.00    +0.038 A 
ATOM     21  C   LIG    1        3.712   3.639   4.405  0.00  0.00    +0.125 A 
ATOM     22  F   LIG    1        3.254   3.663   5.677  0.00  0.00    -0.205 F 
ATOM     23  C   LIG    1        4.073   2.427   3.817  0.00  0.00    +0.067 A 
ENDBRANCH  14  17
ENDBRANCH   4  14
BRANCH   2  24
ATOM     24  O   LIG    1        1.869  -1.160  -1.907  0.00  0.00    -0.493 OA
ATOM     25  C   LIG    1        1.993  -2.574  -1.836  0.00  0.00    +0.277 C 
ENDBRANCH   2  24
BRANCH   1  26
ATOM     26  C   LIG    1       -0.033  -0.094   0.298  0.00  0.00    -0.042 C 
BRANCH  26  28
ATOM     27  C   LIG    1       -2.127   1.152  -0.515  0.00  0.00    -0.100 C 
ATOM     28  N   LIG    1       -0.593   1.113  -0.471  0.00  0.00    +0.380 N 
ATOM     29  H   LIG    1       -0.255   1.961  -0.039  0.00  0.00    -0.086 HD
ATOM     30  H   LIG    1       -0.241   1.085  -1.419  0.00  0.00    -0.086 HD
ENDBRANCH  26  28
ENDBRANCH   1  26
TORSDOF 6
