REMARK  Name = DB16048
REMARK                            x       y       z     vdW  Elec       q    Type
REMARK                         _______ _______ _______ _____ _____    ______ ____
ROOT
ATOM      1  N   LIG    1       -2.934   2.638  -1.321  0.00  0.00    +0.383 N 
ATOM      2  H   LIG    1       -2.052   3.108  -1.174  0.00  0.00    -0.081 HD
ATOM      3  C   LIG    1       -2.905   2.063  -2.760  0.00  0.00    -0.075 C 
ATOM      4  C   LIG    1       -4.302   1.553  -3.175  0.00  0.00    +0.022 C 
ATOM      5  C   LIG    1       -5.407   2.630  -3.044  0.00  0.00    +0.098 C 
ATOM      6  C   LIG    1       -6.780   2.090  -3.460  0.00  0.00    +0.032 A 
ATOM      7  S   LIG    1       -7.517   0.641  -2.830  0.00  0.00    -0.078 S 
ATOM      8  C   LIG    1       -8.920   0.890  -3.813  0.00  0.00    +0.079 A 
ATOM      9  C   LIG    1       -8.813   2.038  -4.583  0.00  0.00    +0.037 A 
ATOM     10 CL   LIG    1      -10.227  -0.223  -3.757  0.00  0.00    -0.076 Cl
ATOM     11  C   LIG    1       -7.607   2.727  -4.389  0.00  0.00    +0.037 A 
ATOM     12  C   LIG    1       -7.178   4.007  -5.092  0.00  0.00    +0.298 C 
ATOM     13  F   LIG    1       -6.778   3.714  -6.330  0.00  0.00    -0.198 F 
ATOM     14  F   LIG    1       -8.204   4.855  -5.169  0.00  0.00    -0.198 F 
ATOM     15  C   LIG    1       -6.022   4.652  -4.296  0.00  0.00    +0.241 C 
ATOM     16  O   LIG    1       -5.028   3.682  -3.950  0.00  0.00    -0.362 OA
ATOM     17  C   LIG    1       -5.410   3.160  -1.587  0.00  0.00    +0.022 C 
ATOM     18  C   LIG    1       -4.037   3.710  -1.145  0.00  0.00    -0.075 C 
ENDROOT
BRANCH   1  19
ATOM     19  C   LIG    1       -3.010   1.554  -0.213  0.00  0.00    -0.040 C 
BRANCH  19  22
ATOM     20  C   LIG    1       -2.612  -1.533  -1.363  0.00  0.00    +0.068 C 
ATOM     21  C   LIG    1       -1.594  -0.615  -0.723  0.00  0.00    +0.062 A 
ATOM     22  C   LIG    1       -1.760   0.696  -0.234  0.00  0.00    -0.023 A 
ATOM     23  C   LIG    1       -0.505   1.018   0.253  0.00  0.00    +0.118 A 
ATOM     24  N   LIG    1        0.325  -0.046  -0.001  0.00  0.00    -0.221 N 
ATOM     25  N   LIG    1       -0.360  -1.046  -0.572  0.00  0.00    -0.170 NA
BRANCH  24  26
ATOM     26  C   LIG    1        1.688  -0.194   0.365  0.00  0.00    +0.159 A 
ATOM     27  C   LIG    1        2.653  -0.845  -0.442  0.00  0.00    +0.022 A 
ATOM     28  C   LIG    1        3.953  -0.960   0.076  0.00  0.00    +0.011 A 
ATOM     29  C   LIG    1        4.269  -0.418   1.321  0.00  0.00    +0.020 A 
ATOM     30  C   LIG    1        3.268   0.239   2.032  0.00  0.00    +0.113 A 
ATOM     31  N   LIG    1        2.000   0.358   1.571  0.00  0.00    -0.236 NA
BRANCH  27  32
ATOM     32  C   LIG    1        2.334  -1.400  -1.835  0.00  0.00    +0.194 C 
BRANCH  32  33
ATOM     33  O   LIG    1        3.440  -1.462  -2.715  0.00  0.00    -0.390 OA
ATOM     34  H   LIG    1        3.146  -1.833  -3.550  0.00  0.00    +0.210 HD
ENDBRANCH  32  33
ENDBRANCH  27  32
ENDBRANCH  24  26
ENDBRANCH  19  22
ENDBRANCH   1  19
TORSDOF 5
