REMARK  Name = DB16302
REMARK                            x       y       z     vdW  Elec       q    Type
REMARK                         _______ _______ _______ _____ _____    ______ ____
ROOT
ATOM      1  C   LIG    1        5.857  -1.096  -2.413  0.00  0.00    -0.078 C 
ENDROOT
BRANCH   1   2
ATOM      2  N   LIG    1        7.401  -1.134  -2.525  0.00  0.00    +0.382 N 
ATOM      3  H   LIG    1        7.795  -0.374  -1.988  0.00  0.00    -0.082 HD
ATOM      4  C   LIG    1        8.002  -2.464  -2.019  0.00  0.00    -0.060 C 
ATOM      5  C   LIG    1        9.536  -2.433  -2.216  0.00  0.00    +0.086 C 
ATOM      6  N   LIG    1        9.945  -2.244  -3.619  0.00  0.00    -0.333 N 
ATOM      7  C   LIG    1        9.365  -0.974  -4.095  0.00  0.00    +0.086 C 
ATOM      8  C   LIG    1        7.822  -0.946  -3.999  0.00  0.00    -0.060 C 
BRANCH   6   9
ATOM      9  C   LIG    1       10.153  -3.303  -4.503  0.00  0.00    +0.031 A 
ATOM     10  C   LIG    1        9.701  -4.605  -4.228  0.00  0.00    +0.042 A 
ATOM     11  C   LIG    1        9.921  -5.652  -5.129  0.00  0.00    +0.054 A 
ATOM     12  C   LIG    1       10.605  -5.407  -6.321  0.00  0.00    +0.019 A 
ATOM     13  C   LIG    1       11.065  -4.124  -6.607  0.00  0.00    +0.003 A 
ATOM     14  C   LIG    1       10.841  -3.084  -5.706  0.00  0.00    +0.023 A 
BRANCH  11  15
ATOM     15  C   LIG    1        9.438  -6.991  -4.826  0.00  0.00    +0.099 C 
ATOM     16  N   LIG    1        9.054  -8.055  -4.585  0.00  0.00    -0.191 NA
ENDBRANCH  11  15
ENDBRANCH   6   9
ENDBRANCH   1   2
BRANCH   1  17
ATOM     17  C   LIG    1        5.394  -1.079  -0.941  0.00  0.00    -0.015 C 
BRANCH  17  21
ATOM     18  C   LIG    1        1.240   0.076   0.321  0.00  0.00    +0.073 C 
ATOM     19  C   LIG    1        1.800   0.536  -1.056  0.00  0.00    +0.022 C 
ATOM     20  C   LIG    1        3.338   0.459  -1.148  0.00  0.00    +0.005 C 
ATOM     21  C   LIG    1        3.863  -0.942  -0.764  0.00  0.00    -0.013 C 
ATOM     22  C   LIG    1        3.450  -1.203   0.699  0.00  0.00    +0.005 C 
ATOM     23  C   LIG    1        1.917  -1.209   0.862  0.00  0.00    +0.022 C 
BRANCH  18  25
ATOM     24  C   LIG    1       -1.038   1.109   0.426  0.00  0.00    +0.215 C 
ATOM     25  N   LIG    1       -0.221   0.040   0.415  0.00  0.00    -0.312 N 
ATOM     26  H   LIG    1       -0.639  -0.879   0.415  0.00  0.00    +0.149 HD
ATOM     27  O   LIG    1       -0.633   2.271   0.376  0.00  0.00    -0.276 OA
BRANCH  24  28
ATOM     28  C   LIG    1       -2.544   0.815   0.489  0.00  0.00    +0.124 C 
BRANCH  28  29
ATOM     29  C   LIG    1       -3.286   1.595   1.593  0.00  0.00    +0.168 C 
BRANCH  29  31
ATOM     30  C   LIG    1       -4.027   3.760   2.235  0.00  0.00    +0.194 C 
ATOM     31  O   LIG    1       -3.361   2.975   1.257  0.00  0.00    -0.382 OA
ENDBRANCH  29  31
ENDBRANCH  28  29
ENDBRANCH  24  28
ENDBRANCH  18  25
ENDBRANCH  17  21
ENDBRANCH   1  17
TORSDOF 9
