REMARK  Name = DB16657
REMARK                            x       y       z     vdW  Elec       q    Type
REMARK                         _______ _______ _______ _____ _____    ______ ____
ROOT
ATOM      1  C   LIG    1       -0.637  -0.762   1.258  0.00  0.00    +0.098 C 
ATOM      2  C   LIG    1       -0.058  -0.164  -0.057  0.00  0.00    +0.105 C 
ATOM      3  C   LIG    1       -0.557  -0.986  -1.275  0.00  0.00    +0.129 C 
ATOM      4  N   LIG    1       -2.026  -1.075  -1.371  0.00  0.00    -0.311 N 
ATOM      5  C   LIG    1       -2.467  -1.783  -0.155  0.00  0.00    +0.107 C 
ATOM      6  C   LIG    1       -2.160  -0.983   1.128  0.00  0.00    +0.033 C 
ENDROOT
BRANCH   2   7
ATOM      7  N   LIG    1        1.414   0.049  -0.057  0.00  0.00    -0.295 N 
ATOM      8  C   LIG    1        1.917   1.326  -0.176  0.00  0.00    +0.236 C 
ATOM      9  O   LIG    1        1.185   2.315  -0.278  0.00  0.00    -0.274 OA
ATOM     10  C   LIG    1        3.471   1.484  -0.107  0.00  0.00    +0.157 C 
ATOM     11  C   LIG    1        4.265   0.212  -0.459  0.00  0.00    +0.033 C 
ATOM     12  C   LIG    1        3.709  -0.959   0.331  0.00  0.00    +0.021 C 
ATOM     13  C   LIG    1        2.243  -1.185  -0.047  0.00  0.00    +0.108 C 
BRANCH  10  14
ATOM     14  N   LIG    1        3.847   2.585  -1.002  0.00  0.00    -0.333 N 
ATOM     15  H   LIG    1        3.408   2.573  -1.912  0.00  0.00    +0.147 HD
BRANCH  14  16
ATOM     16  C   LIG    1        5.104   3.214  -0.951  0.00  0.00    +0.030 A 
ATOM     17  C   LIG    1        5.466   4.023  -2.032  0.00  0.00    +0.035 A 
ATOM     18  C   LIG    1        6.701   4.686  -2.058  0.00  0.00    +0.058 A 
ATOM     19  C   LIG    1        7.576   4.534  -0.978  0.00  0.00    +0.032 A 
ATOM     20  C   LIG    1        7.224   3.736   0.110  0.00  0.00    +0.043 A 
ATOM     21 CL   LIG    1        8.312   3.562   1.438  0.00  0.00    -0.083 Cl
ATOM     22  C   LIG    1        5.994   3.080   0.126  0.00  0.00    +0.043 A 
BRANCH  18  23
ATOM     23  C   LIG    1        7.100   5.567  -3.241  0.00  0.00    +0.418 C 
ATOM     24  F   LIG    1        7.998   4.919  -3.982  0.00  0.00    -0.166 F 
ATOM     25  F   LIG    1        7.643   6.708  -2.812  0.00  0.00    -0.166 F 
ATOM     26  F   LIG    1        6.059   5.873  -4.017  0.00  0.00    -0.166 F 
ENDBRANCH  18  23
ENDBRANCH  14  16
ENDBRANCH  10  14
ENDBRANCH   2   7
BRANCH   4  27
ATOM     27  C   LIG    1       -2.510  -1.578  -2.571  0.00  0.00    +0.162 A 
ATOM     28  C   LIG    1       -3.297  -0.774  -3.409  0.00  0.00    +0.202 A 
ATOM     29  F   LIG    1       -3.605   0.504  -3.075  0.00  0.00    -0.198 F 
ATOM     30  C   LIG    1       -3.752  -1.344  -4.606  0.00  0.00    +0.157 A 
ATOM     31  N   LIG    1       -3.455  -2.621  -4.957  0.00  0.00    -0.218 NA
ATOM     32  C   LIG    1       -2.688  -3.323  -4.085  0.00  0.00    +0.225 A 
ATOM     33  N   LIG    1       -2.199  -2.866  -2.905  0.00  0.00    -0.218 NA
BRANCH  30  34
ATOM     34  N   LIG    1       -4.538  -0.609  -5.492  0.00  0.00    -0.341 N 
ATOM     35  H   LIG    1       -4.851  -1.041  -6.350  0.00  0.00    +0.144 HD
ATOM     36  H   LIG    1       -4.781   0.346  -5.269  0.00  0.00    +0.144 HD
ENDBRANCH  30  34
ENDBRANCH   4  27
BRANCH   1  37
ATOM     37  C   LIG    1       -0.346   0.158   2.465  0.00  0.00    +0.215 C 
ATOM     38  N   LIG    1        0.521  -0.284   3.381  0.00  0.00    -0.329 N 
ATOM     39  H   LIG    1        0.743   0.289   4.181  0.00  0.00    +0.145 HD
ATOM     40  H   LIG    1        0.958  -1.188   3.279  0.00  0.00    +0.145 HD
ATOM     41  O   LIG    1       -0.885   1.258   2.566  0.00  0.00    -0.276 OA
ENDBRANCH   1  37
TORSDOF 7
