REMARK  Name = DB16203
REMARK                            x       y       z     vdW  Elec       q    Type
REMARK                         _______ _______ _______ _____ _____    ______ ____
ROOT
ATOM      1  C   LIG    1        1.516  -0.008  -0.061  0.00  0.00    -0.017 C 
ATOM      2  C   LIG    1        2.027  -1.457   0.038  0.00  0.00    +0.007 C 
ATOM      3  C   LIG    1        2.115   0.699  -1.293  0.00  0.00    +0.007 C 
ENDROOT
BRANCH   1   5
ATOM      4  C   LIG    1       -0.627   1.451   0.069  0.00  0.00    +0.004 C 
ATOM      5  C   LIG    1       -0.030   0.038  -0.034  0.00  0.00    -0.001 C 
ENDBRANCH   1   5
TORSDOF 1
