REMARK  Name = DB16304
REMARK                            x       y       z     vdW  Elec       q    Type
REMARK                         _______ _______ _______ _____ _____    ______ ____
ROOT
ATOM      1  C   LIG    1       -2.468   2.561  -1.078  0.00  0.00    +0.067 C 
ATOM      2  C   LIG    1       -2.103   1.160  -0.623  0.00  0.00    +0.055 A 
ATOM      3  N   LIG    1       -0.760   0.990  -0.416  0.00  0.00    -0.247 NA
ATOM      4  C   LIG    1       -0.275  -0.142  -0.008  0.00  0.00    +0.115 A 
ATOM      5  C   LIG    1       -1.224  -1.354   0.281  0.00  0.00    +0.181 A 
ATOM      6  N   LIG    1       -0.712  -2.431   0.731  0.00  0.00    -0.113 NA
ATOM      7  S   LIG    1       -1.710  -3.807   1.178  0.00  0.00    +0.073 S 
ATOM      8  O   LIG    1       -1.014  -5.051   0.835  0.00  0.00    -0.151 OA
ATOM      9  O   LIG    1       -2.193  -3.640   2.553  0.00  0.00    -0.151 OA
ATOM     10  C   LIG    1       -3.132  -3.535  -0.029  0.00  0.00    +0.214 C 
ATOM     11  C   LIG    1       -3.647  -2.102   0.209  0.00  0.00    +0.148 C 
ATOM     12  N   LIG    1       -2.588  -1.097  -0.008  0.00  0.00    -0.326 N 
ATOM     13  C   LIG    1       -3.000   0.161  -0.434  0.00  0.00    +0.110 A 
ENDROOT
BRANCH   4  14
ATOM     14  C   LIG    1        1.197  -0.260   0.167  0.00  0.00    +0.004 A 
ATOM     15  C   LIG    1        1.908  -1.375  -0.295  0.00  0.00    +0.014 A 
ATOM     16  C   LIG    1        3.287  -1.461  -0.120  0.00  0.00    +0.046 A 
ATOM     17  C   LIG    1        3.988  -0.428   0.517  0.00  0.00    +0.121 A 
ATOM     18  C   LIG    1        3.280   0.686   0.966  0.00  0.00    +0.046 A 
ATOM     19  C   LIG    1        1.903   0.776   0.793  0.00  0.00    +0.014 A 
BRANCH  17  20
ATOM     20  O   LIG    1        5.352  -0.399   0.751  0.00  0.00    -0.489 OA
BRANCH  20  21
ATOM     21  C   LIG    1        6.252  -1.446   0.368  0.00  0.00    +0.173 C 
ATOM     22  C   LIG    1        6.050  -2.786   1.122  0.00  0.00    +0.044 C 
ATOM     23  C   LIG    1        7.175  -3.786   0.781  0.00  0.00    +0.004 C 
ATOM     24  C   LIG    1        7.339  -3.980  -0.740  0.00  0.00    +0.000 C 
ATOM     25  C   LIG    1        7.545  -2.640  -1.476  0.00  0.00    +0.004 C 
ATOM     26  C   LIG    1        6.425  -1.626  -1.162  0.00  0.00    +0.044 C 
ENDBRANCH  20  21
ENDBRANCH  17  20
ENDBRANCH   4  14
TORSDOF 3
