REMARK  Name = DB16075
REMARK                            x       y       z     vdW  Elec       q    Type
REMARK                         _______ _______ _______ _____ _____    ______ ____
ROOT
ATOM      1  C   LIG    1       -3.029   1.520  -0.080  0.00  0.00    +0.147 A 
ATOM      2  C   LIG    1       -2.019   0.548   0.112  0.00  0.00    +0.149 A 
ATOM      3  N   LIG    1       -2.064  -0.684   0.638  0.00  0.00    -0.212 NA
ATOM      4  C   LIG    1       -0.825  -1.100   0.582  0.00  0.00    +0.208 A 
ATOM      5  N   LIG    1        0.028  -0.232  -0.006  0.00  0.00    -0.270 N 
ATOM      6 CL   LIG    1       -0.388  -2.641   1.212  0.00  0.00    -0.043 Cl
ATOM      7  C   LIG    1       -0.731   0.876  -0.281  0.00  0.00    +0.169 A 
ATOM      8  N   LIG    1       -0.352   2.062  -0.821  0.00  0.00    -0.216 NA
ATOM      9  C   LIG    1       -1.391   2.902  -0.952  0.00  0.00    +0.225 A 
ATOM     10  N   LIG    1       -2.678   2.715  -0.629  0.00  0.00    -0.219 NA
ENDROOT
BRANCH   5  11
ATOM     11  C1* LIG    1        1.536  -0.358  -0.153  0.00  0.00    +0.255 C 
ATOM     12  C2* LIG    1        2.122   0.050  -1.521  0.00  0.00    +0.195 C 
ATOM     13  C3* LIG    1        2.957   1.281  -1.154  0.00  0.00    +0.178 C 
ATOM     14  C4* LIG    1        3.364   1.016   0.290  0.00  0.00    +0.177 C 
ATOM     15  O4* LIG    1        2.157   0.465   0.793  0.00  0.00    -0.346 OA
BRANCH  12  16
ATOM     16  O2* LIG    1        2.865  -1.040  -2.044  0.00  0.00    -0.385 OA
ATOM     17  H2* LIG    1        3.169  -0.809  -2.925  0.00  0.00    +0.210 HD
ENDBRANCH  12  16
BRANCH  13  18
ATOM     18  O3* LIG    1        4.059   1.526  -2.010  0.00  0.00    -0.386 OA
ATOM     19  H3* LIG    1        3.725   1.741  -2.884  0.00  0.00    +0.210 HD
ENDBRANCH  13  18
BRANCH  14  20
ATOM     20  C5* LIG    1        3.739   2.272   1.100  0.00  0.00    +0.190 C 
BRANCH  20  21
ATOM     21  O5* LIG    1        3.925   1.950   2.463  0.00  0.00    -0.392 OA
ATOM     22  H5* LIG    1        3.080   1.673   2.827  0.00  0.00    +0.210 HD
ENDBRANCH  20  21
ENDBRANCH  14  20
ENDBRANCH   5  11
BRANCH   1  23
ATOM     23  N   LIG    1       -4.361   1.313   0.272  0.00  0.00    -0.341 N 
ATOM     24  H   LIG    1       -5.035   2.048   0.115  0.00  0.00    +0.144 HD
ATOM     25  H   LIG    1       -4.632   0.436   0.693  0.00  0.00    +0.144 HD
ENDBRANCH   1  23
TORSDOF 6
