REMARK  Name = DB16885
REMARK                            x       y       z     vdW  Elec       q    Type
REMARK                         _______ _______ _______ _____ _____    ______ ____
ROOT
ATOM      1  C   LIG    1       -2.854   0.217  -0.020  0.00  0.00    +0.109 A 
ATOM      2  C   LIG    1       -1.958   1.301   0.013  0.00  0.00    +0.146 A 
ATOM      3  C   LIG    1       -2.405   2.618   0.036  0.00  0.00    +0.096 A 
ATOM      4  C   LIG    1       -3.769   2.887   0.031  0.00  0.00    +0.166 A 
ATOM      5  C   LIG    1       -4.690   1.834   0.012  0.00  0.00    +0.204 A 
ATOM      6  O   LIG    1       -0.588   1.133   0.021  0.00  0.00    -0.454 OA
ATOM      7  C   LIG    1       -0.064  -0.124  -0.018  0.00  0.00    +0.139 A 
ATOM      8  C   LIG    1       -0.836  -1.235  -0.052  0.00  0.00    +0.098 A 
ATOM      9  C   LIG    1       -4.237   0.506  -0.023  0.00  0.00    +0.177 A 
ATOM     10  C   LIG    1       -2.295  -1.183  -0.053  0.00  0.00    +0.197 A 
ATOM     11  O   LIG    1       -2.992  -2.196  -0.080  0.00  0.00    -0.287 OA
ENDROOT
BRANCH   7  12
ATOM     12  C   LIG    1        1.432  -0.098  -0.008  0.00  0.00    +0.021 A 
ATOM     13  C   LIG    1        2.186  -1.279   0.003  0.00  0.00    +0.015 A 
ATOM     14  C   LIG    1        3.578  -1.249   0.010  0.00  0.00    +0.050 A 
ATOM     15  C   LIG    1        4.269  -0.028   0.006  0.00  0.00    +0.162 A 
ATOM     16  C   LIG    1        3.540   1.168  -0.003  0.00  0.00    +0.162 A 
ATOM     17  C   LIG    1        2.135   1.118  -0.011  0.00  0.00    +0.061 A 
BRANCH  15  18
ATOM     18  O   LIG    1        5.650   0.073   0.013  0.00  0.00    -0.491 OA
ATOM     19  C   LIG    1        6.440  -1.111   0.011  0.00  0.00    +0.277 C 
ENDBRANCH  15  18
BRANCH  16  20
ATOM     20  O   LIG    1        4.268   2.345  -0.005  0.00  0.00    -0.491 OA
ATOM     21  C   LIG    1        3.586   3.595  -0.006  0.00  0.00    +0.277 C 
ENDBRANCH  16  20
ENDBRANCH   7  12
BRANCH   4  22
ATOM     22  O   LIG    1       -4.191   4.191   0.040  0.00  0.00    -0.503 OA
ATOM     23  H   LIG    1       -3.464   4.818   0.042  0.00  0.00    +0.292 HD
ENDBRANCH   4  22
BRANCH   5  24
ATOM     24  O   LIG    1       -6.041   2.097  -0.002  0.00  0.00    -0.488 OA
ATOM     25  C   LIG    1       -6.604   2.328   1.283  0.00  0.00    +0.277 C 
ENDBRANCH   5  24
BRANCH   9  26
ATOM     26  O   LIG    1       -5.186  -0.487  -0.059  0.00  0.00    -0.503 OA
ATOM     27  H   LIG    1       -6.080  -0.136  -0.068  0.00  0.00    +0.292 HD
ENDBRANCH   9  26
TORSDOF 6
