REMARK  Name = DB16045
REMARK                            x       y       z     vdW  Elec       q    Type
REMARK                         _______ _______ _______ _____ _____    ______ ____
ROOT
ATOM      1  N   LIG    1       -2.598  -0.642   0.501  0.00  0.00    -0.330 N 
ATOM      2  C   LIG    1       -2.169  -0.153  -0.827  0.00  0.00    +0.107 C 
ATOM      3  C   LIG    1       -0.640  -0.200  -1.034  0.00  0.00    +0.050 C 
ATOM      4  C   LIG    1        0.092   0.595   0.053  0.00  0.00    +0.122 C 
ATOM      5  C   LIG    1       -0.352   0.045   1.419  0.00  0.00    +0.050 C 
ATOM      6  C   LIG    1       -1.887   0.102   1.563  0.00  0.00    +0.107 C 
ENDROOT
BRANCH   1  11
ATOM      7  C   LIG    1       -7.568  -0.370  -1.861  0.00  0.00    +0.149 C 
ATOM      8  N   LIG    1       -7.416  -1.053  -0.586  0.00  0.00    -0.349 N 
ATOM      9  C   LIG    1       -6.239  -1.203   0.121  0.00  0.00    +0.051 A 
ATOM     10  C   LIG    1       -4.943  -0.758  -0.174  0.00  0.00    +0.049 A 
ATOM     11  C   LIG    1       -3.913  -1.048   0.737  0.00  0.00    +0.032 A 
ATOM     12  C   LIG    1       -4.207  -1.772   1.897  0.00  0.00    +0.024 A 
ATOM     13  C   LIG    1       -5.492  -2.217   2.193  0.00  0.00    +0.012 A 
ATOM     14  C   LIG    1       -6.547  -1.942   1.306  0.00  0.00    +0.014 A 
ATOM     15  C   LIG    1       -7.968  -2.244   1.288  0.00  0.00    +0.084 A 
ATOM     16  C   LIG    1       -8.426  -1.673   0.106  0.00  0.00    +0.101 A 
BRANCH  15  17
ATOM     17  C   LIG    1       -8.777  -2.988   2.279  0.00  0.00    +0.339 C 
ATOM     18  O   LIG    1       -8.206  -3.402   3.313  0.00  0.00    -0.245 OA
BRANCH  17  19
ATOM     19  O   LIG    1       -9.992  -3.160   2.024  0.00  0.00    -0.477 OA
ATOM     20  H   LIG    1      -10.536  -3.626   2.628  0.00  0.00    +0.295 HD
ENDBRANCH  17  19
ENDBRANCH  15  17
ENDBRANCH   1  11
BRANCH   4  21
ATOM     21  O   LIG    1        1.495   0.482  -0.155  0.00  0.00    -0.372 OA
BRANCH  21  22
ATOM     22  C   LIG    1        2.312   1.415   0.543  0.00  0.00    +0.201 C 
BRANCH  22  23
ATOM     23  C   LIG    1        3.703   0.835   0.670  0.00  0.00    +0.048 A 
ATOM     24  C   LIG    1        4.078  -0.358   1.300  0.00  0.00    +0.122 A 
ATOM     25  N   LIG    1        5.372  -0.579   1.252  0.00  0.00    -0.078 NA
ATOM     26  O   LIG    1        5.911   0.503   0.564  0.00  0.00    -0.358 OA
ATOM     27  C   LIG    1        4.906   1.349   0.218  0.00  0.00    +0.146 A 
BRANCH  24  28
ATOM     28  C   LIG    1        3.166  -1.333   1.965  0.00  0.00    +0.041 A 
ATOM     29  C   LIG    1        2.783  -1.148   3.304  0.00  0.00    +0.052 A 
ATOM     30 CL   LIG    1        3.363   0.191   4.234  0.00  0.00    -0.083 Cl
ATOM     31  C   LIG    1        1.909  -2.051   3.912  0.00  0.00    +0.021 A 
ATOM     32  C   LIG    1        1.408  -3.136   3.197  0.00  0.00    +0.003 A 
ATOM     33  C   LIG    1        1.779  -3.322   1.867  0.00  0.00    +0.021 A 
ATOM     34  C   LIG    1        2.651  -2.426   1.247  0.00  0.00    +0.052 A 
ATOM     35 CL   LIG    1        3.058  -2.690  -0.415  0.00  0.00    -0.083 Cl
ENDBRANCH  24  28
BRANCH  27  36
ATOM     36  C   LIG    1        5.294   2.601  -0.544  0.00  0.00    +0.058 C 
ATOM     37  C   LIG    1        6.582   3.323  -0.233  0.00  0.00    +0.012 C 
ATOM     38  C   LIG    1        6.424   2.575  -1.544  0.00  0.00    +0.012 C 
ENDBRANCH  27  36
ENDBRANCH  22  23
ENDBRANCH  21  22
ENDBRANCH   4  21
TORSDOF 8
