REMARK  Name = DB16138
REMARK                            x       y       z     vdW  Elec       q    Type
REMARK                         _______ _______ _______ _____ _____    ______ ____
ROOT
ATOM      1  C   LIG    1        1.550  -0.191  -0.198  0.00  0.00    +0.101 C 
ATOM      2  C   LIG    1        2.166   0.591  -1.394  0.00  0.00    -0.002 A 
ATOM      3  C   LIG    1        2.729   1.919  -1.132  0.00  0.00    +0.035 A 
ATOM      4  C   LIG    1        3.215   2.647  -2.151  0.00  0.00    +0.071 A 
ATOM      5  C   LIG    1        3.830   3.978  -2.187  0.00  0.00    +0.093 A 
ATOM      6  N   LIG    1        4.042   4.788  -1.121  0.00  0.00    -0.245 NA
ATOM      7  C   LIG    1        4.632   5.995  -1.355  0.00  0.00    +0.075 A 
ATOM      8  C   LIG    1        4.868   6.863  -0.262  0.00  0.00    +0.069 A 
ATOM      9  C   LIG    1        5.468   8.104  -0.468  0.00  0.00    +0.160 A 
ATOM     10  F   LIG    1        5.688   8.921   0.587  0.00  0.00    -0.202 F 
ATOM     11  C   LIG    1        5.843   8.507  -1.748  0.00  0.00    +0.159 A 
ATOM     12  F   LIG    1        6.425   9.714  -1.930  0.00  0.00    -0.202 F 
ATOM     13  C   LIG    1        5.624   7.677  -2.845  0.00  0.00    +0.051 A 
ATOM     14  C   LIG    1        5.017   6.410  -2.670  0.00  0.00    +0.004 A 
ATOM     15  C   LIG    1        4.771   5.523  -3.752  0.00  0.00    +0.017 A 
ATOM     16  C   LIG    1        4.169   4.294  -3.490  0.00  0.00    +0.000 A 
ATOM     17  C   LIG    1        3.785   3.163  -4.400  0.00  0.00    +0.162 C 
ATOM     18  N   LIG    1        3.222   2.205  -3.449  0.00  0.00    -0.302 N 
ATOM     19  C   LIG    1        2.755   0.966  -3.806  0.00  0.00    +0.259 A 
ATOM     20  O   LIG    1        2.801   0.596  -4.982  0.00  0.00    -0.267 OA
ATOM     21  C   LIG    1        2.216   0.142  -2.696  0.00  0.00    +0.060 A 
ATOM     22  C   LIG    1        1.723  -1.244  -3.150  0.00  0.00    +0.273 C 
ATOM     23  O   LIG    1        0.416  -1.645  -2.752  0.00  0.00    -0.460 OA
ATOM     24  C   LIG    1        0.204  -2.001  -1.468  0.00  0.00    +0.310 C 
ATOM     25  O   LIG    1       -0.864  -2.514  -1.139  0.00  0.00    -0.251 OA
ATOM     26  C   LIG    1        1.297  -1.708  -0.427  0.00  0.00    +0.160 C 
ENDROOT
BRANCH   1  28
ATOM     27  C   LIG    1        0.344   1.880   0.989  0.00  0.00    +0.007 C 
ATOM     28  C   LIG    1        0.247   0.472   0.370  0.00  0.00    +0.037 C 
ENDBRANCH   1  28
BRANCH   1  29
ATOM     29  O   LIG    1        2.511  -0.189   0.846  0.00  0.00    -0.383 OA
ATOM     30  H   LIG    1        2.143  -0.659   1.598  0.00  0.00    +0.211 HD
ENDBRANCH   1  29
TORSDOF 2
