REMARK  Name = DB16040
REMARK                            x       y       z     vdW  Elec       q    Type
REMARK                         _______ _______ _______ _____ _____    ______ ____
ROOT
ATOM      1  N   LIG    1       -2.319   3.045  -1.508  0.00  0.00    -0.331 N 
ATOM      2  C   LIG    1       -0.848   3.142  -1.566  0.00  0.00    +0.086 C 
ATOM      3  C   LIG    1       -0.128   1.774  -1.580  0.00  0.00    -0.060 C 
ATOM      4  N   LIG    1       -0.512   0.988  -0.307  0.00  0.00    +0.382 N 
ATOM      5  H   LIG    1       -0.220   1.515   0.504  0.00  0.00    -0.082 HD
ATOM      6  C   LIG    1       -2.051   0.867  -0.269  0.00  0.00    -0.060 C 
ATOM      7  C   LIG    1       -2.672   2.282  -0.295  0.00  0.00    +0.086 C 
ENDROOT
BRANCH   1  17
ATOM      8 CL   LIG    1       -2.684   2.110  -6.551  0.00  0.00    -0.083 Cl
ATOM      9  C   LIG    1       -3.387   2.561  -5.041  0.00  0.00    +0.046 A 
ATOM     10  C   LIG    1       -4.749   2.836  -4.964  0.00  0.00    +0.069 A 
ATOM     11  C   LIG    1       -5.306   3.208  -3.744  0.00  0.00    +0.165 A 
ATOM     12  O   LIG    1       -6.666   3.440  -3.721  0.00  0.00    -0.485 OA
ATOM     13  C   LIG    1       -7.114   4.197  -2.595  0.00  0.00    +0.270 C 
ATOM     14  C   LIG    1       -6.465   3.661  -1.301  0.00  0.00    +0.270 C 
ATOM     15  O   LIG    1       -5.041   3.744  -1.396  0.00  0.00    -0.483 OA
ATOM     16  C   LIG    1       -4.508   3.279  -2.587  0.00  0.00    +0.183 A 
ATOM     17  C   LIG    1       -3.129   2.991  -2.647  0.00  0.00    +0.077 A 
ATOM     18  C   LIG    1       -2.590   2.643  -3.899  0.00  0.00    +0.047 A 
ENDBRANCH   1  17
BRANCH   4  19
ATOM     19  C   LIG    1        0.130  -0.420  -0.266  0.00  0.00    -0.079 C 
BRANCH  19  20
ATOM     20  C   LIG    1        1.657  -0.338  -0.084  0.00  0.00    -0.017 C 
BRANCH  20  21
ATOM     21  C   LIG    1        2.302  -1.724   0.079  0.00  0.00    +0.019 C 
BRANCH  21  22
ATOM     22  C   LIG    1        3.833  -1.649   0.228  0.00  0.00    +0.135 C 
BRANCH  22  23
ATOM     23  N   LIG    1        4.449  -3.000   0.270  0.00  0.00    -0.168 N 
ATOM     24  S   LIG    1        4.455  -3.914   1.770  0.00  0.00    +0.078 S 
ATOM     25  O   LIG    1        3.090  -4.265   2.179  0.00  0.00    -0.150 OA
ATOM     26  O   LIG    1        5.358  -3.302   2.750  0.00  0.00    -0.150 OA
ATOM     27  C   LIG    1        5.245  -5.286   0.933  0.00  0.00    +0.121 A 
ATOM     28  C   LIG    1        5.633  -6.493   1.514  0.00  0.00    +0.029 A 
ATOM     29  C   LIG    1        6.232  -7.454   0.696  0.00  0.00    +0.002 A 
ATOM     30  C   LIG    1        6.430  -7.207  -0.665  0.00  0.00    +0.001 A 
ATOM     31  C   LIG    1        6.030  -5.991  -1.225  0.00  0.00    +0.015 A 
ATOM     32  C   LIG    1        5.435  -5.015  -0.420  0.00  0.00    +0.065 A 
ATOM     33  C   LIG    1        4.955  -3.670  -0.872  0.00  0.00    +0.268 C 
ATOM     34  O   LIG    1        4.993  -3.220  -2.017  0.00  0.00    -0.268 OA
ENDBRANCH  22  23
ENDBRANCH  21  22
ENDBRANCH  20  21
ENDBRANCH  19  20
ENDBRANCH   4  19
TORSDOF 6
