REMARK  Name = DB16186
REMARK                            x       y       z     vdW  Elec       q    Type
REMARK                         _______ _______ _______ _____ _____    ______ ____
ROOT
ATOM      1  C   LIG    1       -2.170   5.136  -1.178  0.00  0.00    +0.408 C 
ATOM      2  N   LIG    1       -2.294   3.753  -0.950  0.00  0.00    -0.267 N 
ATOM      3  C   LIG    1       -2.219   2.832  -2.101  0.00  0.00    +0.111 C 
ATOM      4  C   LIG    1       -0.859   2.105  -1.990  0.00  0.00    +0.023 C 
ATOM      5  C   LIG    1       -0.700   1.391  -0.627  0.00  0.00    -0.006 C 
ATOM      6  C   LIG    1       -0.877   2.432   0.504  0.00  0.00    +0.023 C 
ATOM      7  C   LIG    1       -2.239   3.156   0.403  0.00  0.00    +0.111 C 
ATOM      8  O   LIG    1       -2.147   5.666  -2.294  0.00  0.00    -0.226 OA
ENDROOT
BRANCH   1   9
ATOM      9  O   LIG    1       -2.095   5.840  -0.004  0.00  0.00    -0.411 OA
BRANCH   9  13
ATOM     10  C   LIG    1        0.676   9.912  -0.022  0.00  0.00    -0.031 A 
ATOM     11  C   LIG    1       -0.586   9.226  -0.032  0.00  0.00    +0.007 A 
ATOM     12  C   LIG    1       -0.726   7.809  -0.013  0.00  0.00    +0.056 A 
ATOM     13  C   LIG    1       -1.987   7.212  -0.034  0.00  0.00    +0.134 A 
ATOM     14  C   LIG    1       -3.136   8.001  -0.050  0.00  0.00    +0.048 A 
ATOM     15  C   LIG    1       -3.045   9.388  -0.069  0.00  0.00    +0.032 A 
ATOM     16  C   LIG    1       -1.779  10.021  -0.063  0.00  0.00    +0.072 A 
ATOM     17  N   LIG    1       -1.748  11.383  -0.084  0.00  0.00    -0.245 NA
ATOM     18  C   LIG    1       -0.536  11.983  -0.073  0.00  0.00    +0.093 A 
ATOM     19  C   LIG    1       -0.298  13.430  -0.091  0.00  0.00    +0.071 A 
ATOM     20  C   LIG    1       -1.146  14.475  -0.128  0.00  0.00    +0.035 A 
ATOM     21  C   LIG    1       -0.589  15.827  -0.137  0.00  0.00    +0.008 A 
ATOM     22  C   LIG    1       -1.474  17.081  -0.133  0.00  0.00    +0.188 C 
ATOM     23  C   LIG    1       -0.768  18.359  -0.662  0.00  0.00    +0.344 C 
ATOM     24  O   LIG    1       -1.311  19.354  -1.144  0.00  0.00    -0.247 OA
ATOM     25  O   LIG    1        0.598  18.389  -0.635  0.00  0.00    -0.457 OA
ATOM     26  C   LIG    1        1.395  17.351  -0.043  0.00  0.00    +0.273 C 
ATOM     27  C   LIG    1        0.767  15.956  -0.086  0.00  0.00    +0.061 A 
ATOM     28  C   LIG    1        1.683  14.801  -0.061  0.00  0.00    +0.259 A 
ATOM     29  O   LIG    1        2.910  14.920  -0.033  0.00  0.00    -0.267 OA
ATOM     30  N   LIG    1        1.069  13.574  -0.064  0.00  0.00    -0.302 N 
ATOM     31  C   LIG    1        1.798  12.308  -0.034  0.00  0.00    +0.163 C 
ATOM     32  C   LIG    1        0.671  11.310  -0.042  0.00  0.00    +0.003 A 
BRANCH  10  34
ATOM     33  C   LIG    1        2.342   8.639   1.434  0.00  0.00    +0.009 C 
ATOM     34  C   LIG    1        1.986   9.126   0.021  0.00  0.00    +0.033 C 
ENDBRANCH  10  34
BRANCH  22  35
ATOM     35  C   LIG    1       -2.055  17.337   1.293  0.00  0.00    +0.048 C 
ATOM     36  C   LIG    1       -1.034  17.611   2.415  0.00  0.00    +0.007 C 
ENDBRANCH  22  35
BRANCH  22  37
ATOM     37  O   LIG    1       -2.614  16.870  -0.955  0.00  0.00    -0.373 OA
ATOM     38  H   LIG    1       -3.174  17.648  -0.904  0.00  0.00    +0.211 HD
ENDBRANCH  22  37
ENDBRANCH   9  13
ENDBRANCH   1   9
BRANCH   5  39
ATOM     39  C   LIG    1        0.602   0.564  -0.517  0.00  0.00    +0.025 C 
BRANCH  39  40
ATOM     40  C   LIG    1        1.919   1.373  -0.503  0.00  0.00    +0.122 C 
BRANCH  40  41
ATOM     41  N   LIG    1        3.063   0.473  -0.568  0.00  0.00    -0.347 N 
ATOM     42  C   LIG    1        3.587  -0.099  -1.718  0.00  0.00    +0.049 A 
ATOM     43  C   LIG    1        3.251   0.076  -3.066  0.00  0.00    +0.028 A 
ATOM     44  C   LIG    1        3.962  -0.670  -4.004  0.00  0.00    +0.028 A 
ATOM     45  C   LIG    1        4.962  -1.578  -3.636  0.00  0.00    +0.054 A 
ATOM     46  C   LIG    1        5.307  -1.733  -2.286  0.00  0.00    +0.036 A 
ATOM     47  C   LIG    1        4.622  -0.995  -1.310  0.00  0.00    +0.002 A 
ATOM     48  C   LIG    1        4.700  -0.919   0.117  0.00  0.00    +0.027 A 
ATOM     49  C   LIG    1        3.728  -0.034   0.526  0.00  0.00    +0.087 A 
BRANCH  45  50
ATOM     50  N   LIG    1        5.600  -2.369  -4.624  0.00  0.00    -0.244 N 
ATOM     51  C   LIG    1        5.026  -3.132  -5.601  0.00  0.00    +0.173 A 
ATOM     52  N   LIG    1        5.896  -3.638  -6.359  0.00  0.00    -0.151 NA
ATOM     53  N   LIG    1        7.048  -3.214  -5.870  0.00  0.00    -0.226 N 
ATOM     54  H   LIG    1        7.899  -3.503  -6.329  0.00  0.00    +0.194 HD
ATOM     55  C   LIG    1        6.942  -2.455  -4.776  0.00  0.00    +0.349 A 
ATOM     56  O   LIG    1        7.850  -1.950  -4.114  0.00  0.00    -0.245 OA
BRANCH  51  57
ATOM     57  C   LIG    1        3.562  -3.332  -5.746  0.00  0.00    +0.061 A 
ATOM     58  C   LIG    1        2.909  -3.228  -6.990  0.00  0.00    +0.131 A 
ATOM     59  C   LIG    1        1.526  -3.392  -7.067  0.00  0.00    +0.091 A 
ATOM     60  C   LIG    1        0.772  -3.650  -5.923  0.00  0.00    +0.124 A 
ATOM     61  C   LIG    1        1.404  -3.767  -4.674  0.00  0.00    -0.002 A 
ATOM     62  C   LIG    1        2.796  -3.626  -4.609  0.00  0.00    +0.022 A 
BRANCH  61  63
ATOM     63  C   LIG    1        0.630  -4.018  -3.370  0.00  0.00    +0.016 C 
ATOM     64  C   LIG    1       -0.288  -2.837  -2.999  0.00  0.00    +0.012 C 
ATOM     65  C   LIG    1       -0.115  -5.367  -3.362  0.00  0.00    +0.012 C 
ENDBRANCH  61  63
BRANCH  58  66
ATOM     66  O   LIG    1        3.581  -2.942  -8.155  0.00  0.00    -0.506 OA
ATOM     67  H   LIG    1        3.007  -2.909  -8.922  0.00  0.00    +0.292 HD
ENDBRANCH  58  66
BRANCH  60  68
ATOM     68  O   LIG    1       -0.587  -3.773  -6.061  0.00  0.00    -0.506 OA
ATOM     69  H   LIG    1       -0.884  -3.669  -6.968  0.00  0.00    +0.292 HD
ENDBRANCH  60  68
ENDBRANCH  51  57
ENDBRANCH  45  50
ENDBRANCH  40  41
ENDBRANCH  39  40
ENDBRANCH   5  39
TORSDOF 13
