REMARK  Name = DB16627
REMARK                            x       y       z     vdW  Elec       q    Type
REMARK                         _______ _______ _______ _____ _____    ______ ____
ROOT
ATOM      1  N   LIG    1        2.652  -1.627   1.123  0.00  0.00    -0.301 N 
ATOM      2  H   LIG    1        2.616  -0.954   1.876  0.00  0.00    +0.150 HD
ATOM      3  C   LIG    1        2.266  -1.244  -0.107  0.00  0.00    +0.231 C 
ATOM      4  O   LIG    1        2.309  -1.974  -1.100  0.00  0.00    -0.274 OA
ENDROOT
BRANCH   1   5
ATOM      5  C   LIG    1        3.193  -2.945   1.482  0.00  0.00    +0.186 C 
BRANCH   5   6
ATOM      6  C   LIG    1        2.436  -3.389   2.731  0.00  0.00    +0.328 C 
ATOM      7  O   LIG    1        1.965  -2.618   3.575  0.00  0.00    -0.249 OA
BRANCH   6   8
ATOM      8  O   LIG    1        2.361  -4.738   2.793  0.00  0.00    -0.464 OA
BRANCH   8   9
ATOM      9  C   LIG    1        1.725  -5.387   3.885  0.00  0.00    +0.229 C 
ATOM     10  C   LIG    1        1.824  -6.903   3.696  0.00  0.00    +0.048 C 
ENDBRANCH   8   9
ENDBRANCH   6   8
ENDBRANCH   5   6
BRANCH   5  11
ATOM     11  C   LIG    1        4.724  -2.874   1.732  0.00  0.00    +0.069 C 
BRANCH  11  12
ATOM     12  C   LIG    1        5.360  -4.244   1.955  0.00  0.00    -0.045 A 
ATOM     13  C   LIG    1        5.493  -5.135   0.886  0.00  0.00    +0.006 A 
ATOM     14  C   LIG    1        6.055  -6.392   1.095  0.00  0.00    +0.038 A 
ATOM     15  C   LIG    1        6.484  -6.755   2.370  0.00  0.00    +0.123 A 
ATOM     16  F   LIG    1        7.027  -7.977   2.572  0.00  0.00    -0.205 F 
ATOM     17  C   LIG    1        6.357  -5.870   3.438  0.00  0.00    +0.038 A 
ATOM     18  C   LIG    1        5.797  -4.612   3.231  0.00  0.00    +0.006 A 
ENDBRANCH  11  12
ENDBRANCH   5  11
ENDBRANCH   1   5
BRANCH   3  19
ATOM     19  C   LIG    1        1.713   0.194  -0.222  0.00  0.00    +0.142 C 
BRANCH  19  20
ATOM     20  N   LIG    1        2.421   0.852  -1.335  0.00  0.00    -0.320 NA
ATOM     21  H   LIG    1        2.117   0.493  -2.229  0.00  0.00    +0.119 HD
ATOM     22  H   LIG    1        3.420   0.717  -1.275  0.00  0.00    +0.119 HD
ENDBRANCH  19  20
BRANCH  19  23
ATOM     23  C   LIG    1        0.173   0.175  -0.404  0.00  0.00    +0.063 C 
BRANCH  23  24
ATOM     24  C   LIG    1       -0.456   1.556  -0.248  0.00  0.00    -0.045 A 
ATOM     25  C   LIG    1       -0.682   2.067   1.031  0.00  0.00    +0.005 A 
ATOM     26  C   LIG    1       -1.113   3.379   1.198  0.00  0.00    +0.023 A 
ATOM     27  C   LIG    1       -1.282   4.228   0.094  0.00  0.00    +0.030 A 
ATOM     28  C   LIG    1       -0.965   3.729  -1.179  0.00  0.00    +0.023 A 
ATOM     29  C   LIG    1       -0.530   2.417  -1.343  0.00  0.00    +0.005 A 
BRANCH  27  30
ATOM     30  N   LIG    1       -1.748   5.558   0.285  0.00  0.00    -0.328 N 
BRANCH  30  31
ATOM     31  C   LIG    1       -1.559   6.575  -0.759  0.00  0.00    +0.121 C 
BRANCH  31  32
ATOM     32  C   LIG    1       -0.086   6.886  -1.083  0.00  0.00    +0.127 C 
ATOM     33 CL   LIG    1        0.010   8.161  -2.325  0.00  0.00    -0.124 Cl
ENDBRANCH  31  32
ENDBRANCH  30  31
BRANCH  30  34
ATOM     34  C   LIG    1       -2.926   5.737   1.149  0.00  0.00    +0.121 C 
BRANCH  34  35
ATOM     35  C   LIG    1       -4.284   5.506   0.452  0.00  0.00    +0.127 C 
ATOM     36 CL   LIG    1       -4.546   3.791   0.034  0.00  0.00    -0.124 Cl
ENDBRANCH  34  35
ENDBRANCH  30  34
ENDBRANCH  27  30
ENDBRANCH  23  24
ENDBRANCH  19  23
ENDBRANCH   3  19
TORSDOF 15
