REMARK  Name = DB16205
REMARK                            x       y       z     vdW  Elec       q    Type
REMARK                         _______ _______ _______ _____ _____    ______ ____
ROOT
ATOM      1  C   LIG    1        3.728  -0.099  -1.142  0.00  0.00    -0.004 A 
ATOM      2  C   LIG    1        4.460  -0.197  -2.330  0.00  0.00    +0.118 A 
ATOM      3  N   LIG    1        5.813  -0.281  -2.373  0.00  0.00    -0.259 NA
ATOM      4  C   LIG    1        6.482  -0.267  -1.194  0.00  0.00    +0.156 A 
ATOM      5  C   LIG    1        5.855  -0.174   0.050  0.00  0.00    +0.139 A 
ATOM      6  C   LIG    1        4.451  -0.086   0.061  0.00  0.00    +0.056 A 
ENDROOT
BRANCH   1   8
ATOM      7  C   LIG    1        1.411   0.181  -0.172  0.00  0.00    -0.028 C 
ATOM      8  C   LIG    1        2.254  -0.011  -1.206  0.00  0.00    +0.005 C 
BRANCH   7   9
ATOM      9  C   LIG    1       -0.102   0.251  -0.294  0.00  0.00    +0.011 C 
BRANCH   9  10
ATOM     10  C   LIG    1       -0.699   1.644   0.009  0.00  0.00    -0.072 C 
ATOM     11  C   LIG    1       -0.472   2.121   1.460  0.00  0.00    -0.013 C 
BRANCH  10  13
ATOM     12  C   LIG    1       -2.941   2.937  -0.317  0.00  0.00    -0.100 C 
ATOM     13  N   LIG    1       -2.210   1.584  -0.293  0.00  0.00    +0.379 N 
ATOM     14  H   LIG    1       -2.324   1.160  -1.203  0.00  0.00    -0.086 HD
ATOM     15  H   LIG    1       -2.656   0.978   0.381  0.00  0.00    -0.086 HD
ENDBRANCH  10  13
ENDBRANCH   9  10
ENDBRANCH   7   9
ENDBRANCH   1   8
BRANCH   5  16
ATOM     16  O   LIG    1        6.668  -0.170   1.169  0.00  0.00    -0.488 OA
BRANCH  16  17
ATOM     17  C   LIG    1        6.107  -0.136   2.483  0.00  0.00    +0.167 C 
ATOM     18  C   LIG    1        5.558  -1.521   2.881  0.00  0.00    +0.051 C 
ATOM     19  C   LIG    1        7.220   0.326   3.434  0.00  0.00    +0.051 C 
ENDBRANCH  16  17
ENDBRANCH   5  16
TORSDOF 6
