REMARK  Name = DB16863
REMARK                            x       y       z     vdW  Elec       q    Type
REMARK                         _______ _______ _______ _____ _____    ______ ____
ROOT
ATOM      1  C   LIG    1        0.023  -0.027   0.000  0.00  0.00    -0.000 A 
ATOM      2  C   LIG    1       -0.713  -1.223   0.000  0.00  0.00    +0.011 A 
ATOM      3  C   LIG    1       -2.102  -1.227   0.000  0.00  0.00    -0.050 A 
ATOM      4  C   LIG    1       -2.793  -0.021   0.000  0.00  0.00    +0.011 A 
ATOM      5  C   LIG    1       -2.123   1.214   0.000  0.00  0.00    -0.000 A 
ATOM      6  C   LIG    1       -2.853  -2.547   0.000  0.00  0.00    +0.044 C 
ATOM      7  C   LIG    1       -0.705   1.190   0.000  0.00  0.00    +0.124 A 
ENDROOT
BRANCH   5   8
ATOM      8  C   LIG    1       -2.938   2.550   0.000  0.00  0.00    -0.009 C 
ATOM      9  C   LIG    1       -2.628   3.381   1.273  0.00  0.00    +0.015 C 
ATOM     10  C   LIG    1       -2.628   3.381  -1.273  0.00  0.00    +0.015 C 
ATOM     11  C   LIG    1       -4.479   2.331   0.000  0.00  0.00    +0.015 C 
ENDBRANCH   5   8
BRANCH   1  12
ATOM     12  C   LIG    1        1.587  -0.068   0.000  0.00  0.00    -0.009 C 
ATOM     13  C   LIG    1        2.154   0.614  -1.274  0.00  0.00    +0.015 C 
ATOM     14  C   LIG    1        2.154   0.614   1.274  0.00  0.00    +0.015 C 
ATOM     15  C   LIG    1        2.165  -1.513   0.000  0.00  0.00    +0.015 C 
ENDBRANCH   1  12
BRANCH   7  16
ATOM     16  O   LIG    1       -0.017   2.376   0.000  0.00  0.00    -0.506 OA
ATOM     17  H   LIG    1        0.935   2.249   0.000  0.00  0.00    +0.292 HD
ENDBRANCH   7  16
TORSDOF 3
