REMARK  Name = DB16232
REMARK                            x       y       z     vdW  Elec       q    Type
REMARK                         _______ _______ _______ _____ _____    ______ ____
ROOT
ATOM      1  C   LIG    1       -4.824  -3.911  -0.075  0.00  0.00    +0.151 A 
ATOM      2  C   LIG    1       -4.461  -2.553  -0.314  0.00  0.00    +0.018 A 
ATOM      3  C   LIG    1       -5.166  -1.312  -0.929  0.00  0.00    -0.001 C 
ATOM      4  C   LIG    1       -4.481  -0.037  -0.309  0.00  0.00    +0.050 C 
ATOM      5  C   LIG    1       -2.955  -0.067  -0.341  0.00  0.00    -0.001 A 
ATOM      6  C   LIG    1       -2.148   1.048  -0.593  0.00  0.00    +0.120 A 
ATOM      7  N   LIG    1       -0.790   1.000  -0.556  0.00  0.00    -0.222 NA
ATOM      8  C   LIG    1       -0.228  -0.197  -0.248  0.00  0.00    +0.220 A 
ATOM      9  N   LIG    1       -0.922  -1.340  -0.003  0.00  0.00    -0.212 NA
ATOM     10  C   LIG    1       -2.277  -1.261  -0.068  0.00  0.00    +0.097 A 
ATOM     11  C   LIG    1       -6.655  -1.224  -0.508  0.00  0.00    +0.016 C 
ATOM     12  C   LIG    1       -4.963  -1.306  -2.460  0.00  0.00    +0.016 C 
ATOM     13  C   LIG    1       -3.126  -2.472   0.095  0.00  0.00    +0.092 A 
ATOM     14  N   LIG    1       -2.820  -3.705   0.610  0.00  0.00    -0.264 N 
ATOM     15  C   LIG    1       -1.559  -4.166   1.174  0.00  0.00    +0.173 C 
ATOM     16  N   LIG    1       -3.834  -4.564   0.509  0.00  0.00    -0.166 NA
ENDROOT
BRANCH   1  20
ATOM     17  C   LIG    1       -7.598  -6.441   0.031  0.00  0.00    +0.128 C 
ATOM     18  N   LIG    1       -6.419  -5.613   0.261  0.00  0.00    -0.313 N 
ATOM     19  H   LIG    1       -5.842  -5.864   1.051  0.00  0.00    +0.149 HD
ATOM     20  C   LIG    1       -6.046  -4.565  -0.500  0.00  0.00    +0.264 C 
ATOM     21  O   LIG    1       -6.666  -4.189  -1.494  0.00  0.00    -0.268 OA
ENDBRANCH   1  20
BRANCH   8  22
ATOM     22  N   LIG    1        1.176  -0.220  -0.234  0.00  0.00    -0.284 N 
ATOM     23  H   LIG    1        1.604   0.638  -0.549  0.00  0.00    +0.155 HD
BRANCH  22  24
ATOM     24  C   LIG    1        2.086  -1.206   0.185  0.00  0.00    +0.034 A 
ATOM     25  C   LIG    1        1.792  -2.110   1.210  0.00  0.00    +0.025 A 
ATOM     26  C   LIG    1        2.733  -3.059   1.597  0.00  0.00    +0.025 A 
ATOM     27  C   LIG    1        3.989  -3.119   0.976  0.00  0.00    +0.030 A 
ATOM     28  C   LIG    1        4.276  -2.201  -0.043  0.00  0.00    +0.025 A 
ATOM     29  C   LIG    1        3.336  -1.249  -0.431  0.00  0.00    +0.025 A 
BRANCH  27  30
ATOM     30  N   LIG    1        4.954  -4.053   1.348  0.00  0.00    -0.333 N 
ATOM     31  C   LIG    1        4.632  -5.286   2.092  0.00  0.00    +0.086 C 
ATOM     32  C   LIG    1        4.698  -5.125   3.631  0.00  0.00    -0.060 C 
ATOM     33  N   LIG    1        6.112  -4.652   4.021  0.00  0.00    +0.380 N 
ATOM     34  H   LIG    1        6.779  -5.351   3.723  0.00  0.00    -0.082 HD
ATOM     35  C   LIG    1        6.221  -4.454   5.545  0.00  0.00    -0.096 C 
ATOM     36  C   LIG    1        6.413  -3.338   3.275  0.00  0.00    -0.060 C 
ATOM     37  C   LIG    1        6.297  -3.599   1.757  0.00  0.00    +0.086 C 
ENDBRANCH  27  30
ENDBRANCH  22  24
ENDBRANCH   8  22
TORSDOF 4
