REMARK  Name = DB16009
REMARK                            x       y       z     vdW  Elec       q    Type
REMARK                         _______ _______ _______ _____ _____    ______ ____
ROOT
ATOM      1  C   LIG    1        3.776  -0.600   0.182  0.00  0.00    +0.035 C 
ATOM      2  C   LIG    1        3.957   0.621   1.137  0.00  0.00    +0.033 C 
ATOM      3  C   LIG    1        3.691   0.305   2.630  0.00  0.00    +0.107 C 
ATOM      4  N   LIG    1        4.549  -0.781   3.144  0.00  0.00    -0.315 N 
ATOM      5  C   LIG    1        4.286  -1.982   2.329  0.00  0.00    +0.107 C 
ATOM      6  C   LIG    1        4.595  -1.763   0.827  0.00  0.00    +0.033 C 
ENDROOT
BRANCH   4   7
ATOM      7  C   LIG    1        4.684  -0.990   4.517  0.00  0.00    +0.134 A 
ATOM      8  N   LIG    1        3.777  -0.398   5.348  0.00  0.00    -0.220 NA
ATOM      9  C   LIG    1        3.862  -0.668   6.673  0.00  0.00    +0.225 A 
ATOM     10  N   LIG    1        4.759  -1.469   7.301  0.00  0.00    -0.218 NA
ATOM     11  C   LIG    1        5.657  -2.002   6.467  0.00  0.00    +0.143 A 
ATOM     12  N   LIG    1        6.697  -2.828   6.817  0.00  0.00    -0.345 N 
ATOM     13  H   LIG    1        6.939  -3.166   7.737  0.00  0.00    +0.167 HD
ATOM     14  C   LIG    1        7.423  -3.130   5.694  0.00  0.00    +0.088 A 
ATOM     15  C   LIG    1        6.891  -2.510   4.575  0.00  0.00    -0.021 A 
ATOM     16  C   LIG    1        7.458  -2.555   3.173  0.00  0.00    +0.046 C 
ATOM     17  C   LIG    1        5.714  -1.809   5.052  0.00  0.00    +0.061 A 
ENDBRANCH   4   7
BRANCH   1  20
ATOM     18  N   LIG    1        1.330  -0.049   0.250  0.00  0.00    -0.285 N 
ATOM     19  H   LIG    1        1.679   0.895   0.325  0.00  0.00    +0.155 HD
ATOM     20  C   LIG    1        2.259  -1.024   0.114  0.00  0.00    +0.222 C 
ATOM     21  O   LIG    1        1.972  -2.200  -0.122  0.00  0.00    -0.275 OA
BRANCH  18  24
ATOM     22  C   LIG    1       -2.182   1.044   0.030  0.00  0.00    +0.135 A 
ATOM     23  C   LIG    1       -0.781   1.038   0.041  0.00  0.00    +0.069 A 
ATOM     24  C   LIG    1       -0.073  -0.149   0.255  0.00  0.00    +0.037 A 
ATOM     25  C   LIG    1       -0.787  -1.336   0.496  0.00  0.00    +0.023 A 
ATOM     26  C   LIG    1       -2.181  -1.329   0.499  0.00  0.00    +0.005 A 
ATOM     27  C   LIG    1       -2.877  -0.143   0.268  0.00  0.00    +0.046 A 
BRANCH  22  28
ATOM     28  O   LIG    1       -2.889   2.210  -0.167  0.00  0.00    -0.411 OA
BRANCH  28  29
ATOM     29  C   LIG    1       -2.908   2.814  -1.399  0.00  0.00    +0.408 C 
ATOM     30  O   LIG    1       -2.325   2.364  -2.391  0.00  0.00    -0.226 OA
ATOM     31  N   LIG    1       -3.671   3.993  -1.384  0.00  0.00    -0.273 N 
ATOM     32  C   LIG    1       -3.894   4.748  -2.617  0.00  0.00    +0.135 C 
ATOM     33  C   LIG    1       -4.401   4.479  -0.209  0.00  0.00    +0.135 C 
ENDBRANCH  28  29
ENDBRANCH  22  28
ENDBRANCH  18  24
ENDBRANCH   1  20
BRANCH   1  34
ATOM     34  C   LIG    1        4.262  -0.226  -1.260  0.00  0.00    -0.070 C 
BRANCH  34  35
ATOM     35  N   LIG    1        4.242  -1.389  -2.271  0.00  0.00    +0.379 N 
ATOM     36  H   LIG    1        4.838  -2.139  -1.950  0.00  0.00    -0.090 HD
ATOM     37  H   LIG    1        3.302  -1.744  -2.370  0.00  0.00    -0.090 HD
ATOM     38  H   LIG    1        4.570  -1.075  -3.173  0.00  0.00    -0.090 HD
ENDBRANCH  34  35
ENDBRANCH   1  34
TORSDOF 7
