REMARK  Name = DB16041
REMARK                            x       y       z     vdW  Elec       q    Type
REMARK                         _______ _______ _______ _____ _____    ______ ____
ROOT
ATOM      1  C   LIG    1       -2.077   5.522  -0.147  0.00  0.00    +0.048 C 
ATOM      2  C   LIG    1       -1.564   4.080  -0.033  0.00  0.00    +0.003 C 
ATOM      3  C   LIG    1       -1.445   3.397  -1.348  0.00  0.00    +0.185 C 
ATOM      4  O   LIG    1       -1.801   3.910  -2.413  0.00  0.00    -0.287 OA
ATOM      5  C   LIG    1       -0.882   2.024  -1.252  0.00  0.00    +0.003 C 
ATOM      6  C   LIG    1       -0.689   1.355  -2.620  0.00  0.00    +0.048 C 
ATOM      7  C   LIG    1       -0.516   1.444  -0.073  0.00  0.00    +0.006 C 
ATOM      8  C   LIG    1       -0.644   2.125   1.244  0.00  0.00    +0.186 C 
ATOM      9  O   LIG    1       -0.304   1.605   2.311  0.00  0.00    -0.287 OA
ATOM     10  C   LIG    1       -1.193   3.504   1.147  0.00  0.00    +0.003 C 
ATOM     11  C   LIG    1       -1.367   4.183   2.512  0.00  0.00    +0.048 C 
ENDROOT
BRANCH   7  12
ATOM     12  C   LIG    1        0.020   0.005   0.024  0.00  0.00    +0.042 C 
BRANCH  12  13
ATOM     13  C   LIG    1        1.566  -0.082   0.038  0.00  0.00    +0.049 C 
BRANCH  13  14
ATOM     14  C   LIG    1        2.172  -1.516   0.052  0.00  0.00    +0.139 C 
ATOM     15  C   LIG    1        3.715  -1.435   0.119  0.00  0.00    +0.051 C 
BRANCH  14  16
ATOM     16  C   LIG    1        1.737  -2.350  -1.189  0.00  0.00    +0.242 C 
ATOM     17  O   LIG    1        1.959  -1.921  -2.321  0.00  0.00    -0.273 OA
ATOM     18  N   LIG    1        1.120  -3.527  -1.019  0.00  0.00    -0.327 N 
ATOM     19  H   LIG    1        0.834  -4.072  -1.819  0.00  0.00    +0.145 HD
ATOM     20  H   LIG    1        0.939  -3.872  -0.088  0.00  0.00    +0.145 HD
ENDBRANCH  14  16
BRANCH  14  21
ATOM     21  O   LIG    1        1.759  -2.148   1.260  0.00  0.00    -0.380 OA
ATOM     22  H   LIG    1        2.037  -1.603   2.000  0.00  0.00    +0.211 HD
ENDBRANCH  14  21
ENDBRANCH  13  14
ENDBRANCH  12  13
ENDBRANCH   7  12
TORSDOF 5
