REMARK  Name = DB16014
REMARK                            x       y       z     vdW  Elec       q    Type
REMARK                         _______ _______ _______ _____ _____    ______ ____
ROOT
ATOM      1  C   LIG    1       -0.707  -1.356   0.012  0.00  0.00    +0.074 A 
ATOM      2  C   LIG    1       -2.124  -1.291  -0.043  0.00  0.00    +0.065 A 
ATOM      3  C   LIG    1       -2.817  -0.068  -0.113  0.00  0.00    +0.166 A 
ATOM      4  C   LIG    1       -2.053   1.089  -0.117  0.00  0.00    +0.208 A 
ATOM      5  O   LIG    1       -2.470   2.381  -0.199  0.00  0.00    -0.449 OA
ATOM      6  C   LIG    1       -1.329   3.160   0.033  0.00  0.00    +0.467 C 
ATOM      7  O   LIG    1       -0.214   2.328  -0.118  0.00  0.00    -0.452 OA
ATOM      8  C   LIG    1       -0.691   1.055  -0.066  0.00  0.00    +0.178 A 
ATOM      9  C   LIG    1        0.031  -0.137  -0.001  0.00  0.00    +0.046 A 
ENDROOT
BRANCH   9  10
ATOM     10  C   LIG    1        1.517  -0.042   0.044  0.00  0.00    +0.038 A 
ATOM     11  C   LIG    1        2.253  -0.038  -1.140  0.00  0.00    +0.178 A 
ATOM     12  O   LIG    1        1.800  -0.148  -2.418  0.00  0.00    -0.452 OA
ATOM     13  C   LIG    1        2.910   0.098  -3.237  0.00  0.00    +0.467 C 
ATOM     14  O   LIG    1        4.057  -0.007  -2.439  0.00  0.00    -0.449 OA
ATOM     15  C   LIG    1        3.616   0.047  -1.154  0.00  0.00    +0.208 A 
ATOM     16  C   LIG    1        4.362   0.137   0.016  0.00  0.00    +0.166 A 
ATOM     17  C   LIG    1        3.648   0.147   1.231  0.00  0.00    +0.056 A 
ATOM     18  C   LIG    1        2.242   0.060   1.254  0.00  0.00    -0.007 A 
BRANCH  16  19
ATOM     19  O   LIG    1        5.734   0.210  -0.118  0.00  0.00    -0.491 OA
ATOM     20  C   LIG    1        6.528   0.314   1.058  0.00  0.00    +0.277 C 
ENDBRANCH  16  19
BRANCH  18  21
ATOM     21  C   LIG    1        1.528   0.067   2.603  0.00  0.00    +0.191 C 
BRANCH  21  22
ATOM     22  O   LIG    1        0.941   1.316   2.901  0.00  0.00    -0.390 OA
ATOM     23  H   LIG    1        0.474   1.243   3.736  0.00  0.00    +0.210 HD
ENDBRANCH  21  22
ENDBRANCH  18  21
ENDBRANCH   9  10
BRANCH   1  24
ATOM     24  C   LIG    1       -0.027  -2.709   0.090  0.00  0.00    +0.340 C 
ATOM     25  O   LIG    1        1.190  -2.867   0.220  0.00  0.00    -0.245 OA
BRANCH  24  27
ATOM     26  C   LIG    1       -0.427  -5.097   0.032  0.00  0.00    +0.280 C 
ATOM     27  O   LIG    1       -0.890  -3.754  -0.012  0.00  0.00    -0.464 OA
ENDBRANCH  24  27
ENDBRANCH   1  24
BRANCH   3  28
ATOM     28  O   LIG    1       -4.188   0.088  -0.176  0.00  0.00    -0.491 OA
ATOM     29  C   LIG    1       -5.009  -1.073  -0.177  0.00  0.00    +0.277 C 
ENDBRANCH   3  28
TORSDOF 7
