REMARK  Name = DB16873
REMARK                            x       y       z     vdW  Elec       q    Type
REMARK                         _______ _______ _______ _____ _____    ______ ____
ROOT
ATOM      1  C   LIG    1       -0.047   0.052   0.076  0.00  0.00    +0.181 C 
ENDROOT
BRANCH   1   2
ATOM      2  O   LIG    1       -0.624   1.351   0.051  0.00  0.00    -0.386 OA
ATOM      3  H   LIG    1       -0.232   1.843  -0.674  0.00  0.00    +0.210 HD
ENDBRANCH   1   2
BRANCH   1   4
ATOM      4  C   LIG    1        1.503   0.153  -0.053  0.00  0.00    +0.171 C 
BRANCH   4   5
ATOM      5  O   LIG    1        2.072  -1.142   0.036  0.00  0.00    -0.387 OA
ATOM      6  H   LIG    1        1.839  -1.518   0.889  0.00  0.00    +0.210 HD
ENDBRANCH   4   5
BRANCH   4   7
ATOM      7  C   LIG    1        2.001   0.781  -1.379  0.00  0.00    +0.189 C 
BRANCH   7   8
ATOM      8  O   LIG    1        1.779   2.176  -1.432  0.00  0.00    -0.392 OA
ATOM      9  H   LIG    1        2.155   2.515  -2.248  0.00  0.00    +0.210 HD
ENDBRANCH   7   8
ENDBRANCH   4   7
ENDBRANCH   1   4
BRANCH   1  10
ATOM     10  C   LIG    1       -0.547  -0.754   1.315  0.00  0.00    +0.208 C 
BRANCH  10  11
ATOM     11  O   LIG    1       -0.120  -0.146   2.527  0.00  0.00    -0.382 OA
ATOM     12  H   LIG    1       -0.452  -0.665   3.263  0.00  0.00    +0.210 HD
ENDBRANCH  10  11
BRANCH  10  13
ATOM     13  C   LIG    1       -2.075  -0.959   1.337  0.00  0.00    +0.257 C 
ATOM     14  O   LIG    1       -2.787  -0.621   2.285  0.00  0.00    -0.298 OA
ENDBRANCH  10  13
ENDBRANCH   1  10
TORSDOF 8
