REMARK  Name = DB16101
REMARK                            x       y       z     vdW  Elec       q    Type
REMARK                         _______ _______ _______ _____ _____    ______ ____
ROOT
ATOM      1  C   LIG    1        1.382   0.019   0.000  0.00  0.00    +0.166 A 
ATOM      2  C   LIG    1        2.047  -1.212   0.000  0.00  0.00    +0.202 A 
ATOM      3  C   LIG    1        3.451  -1.255   0.000  0.00  0.00    +0.177 A 
ATOM      4  C   LIG    1        4.205  -0.059   0.000  0.00  0.00    +0.109 A 
ATOM      5  C   LIG    1        5.713  -0.023   0.000  0.00  0.00    +0.197 A 
ATOM      6  C   LIG    1        6.271   1.325   0.000  0.00  0.00    +0.098 A 
ATOM      7  C   LIG    1        5.499   2.437   0.000  0.00  0.00    +0.139 A 
ATOM      8  O   LIG    1        4.138   2.385   0.000  0.00  0.00    -0.454 OA
ATOM      9  O   LIG    1        6.420  -1.030   0.000  0.00  0.00    -0.287 OA
ATOM     10  C   LIG    1        3.502   1.160   0.000  0.00  0.00    +0.146 A 
ATOM     11  C   LIG    1        2.112   1.202   0.000  0.00  0.00    +0.096 A 
ENDROOT
BRANCH   7  12
ATOM     12  C   LIG    1        5.996   3.848   0.000  0.00  0.00    +0.017 A 
ATOM     13  C   LIG    1        5.092   4.924   0.000  0.00  0.00    +0.011 A 
ATOM     14  C   LIG    1        5.542   6.242   0.000  0.00  0.00    +0.001 A 
ATOM     15  C   LIG    1        6.908   6.503   0.000  0.00  0.00    +0.000 A 
ATOM     16  C   LIG    1        7.824   5.457   0.000  0.00  0.00    +0.001 A 
ATOM     17  C   LIG    1        7.370   4.141   0.000  0.00  0.00    +0.011 A 
ENDBRANCH   7  12
BRANCH   1  18
ATOM     18  O   LIG    1        0.012   0.084   0.000  0.00  0.00    -0.503 OA
ATOM     19  H   LIG    1       -0.319   0.985   0.000  0.00  0.00    +0.292 HD
ENDBRANCH   1  18
BRANCH   2  20
ATOM     20  O   LIG    1        1.317  -2.379   0.000  0.00  0.00    -0.501 OA
ATOM     21  H   LIG    1        0.369  -2.224   0.000  0.00  0.00    +0.292 HD
ENDBRANCH   2  20
BRANCH   3  22
ATOM     22  O   LIG    1        4.057  -2.490   0.000  0.00  0.00    -0.503 OA
ATOM     23  H   LIG    1        3.419  -3.208   0.000  0.00  0.00    +0.292 HD
ENDBRANCH   3  22
TORSDOF 4
