REMARK  Name = DB16159
REMARK                            x       y       z     vdW  Elec       q    Type
REMARK                         _______ _______ _______ _____ _____    ______ ____
ROOT
ATOM      1  C   LIG    1        1.495   0.029   0.059  0.00  0.00    -0.031 A 
ATOM      2  C   LIG    1        2.204  -0.492  -1.027  0.00  0.00    +0.005 A 
ATOM      3  C   LIG    1        3.598  -0.491  -1.026  0.00  0.00    +0.011 A 
ATOM      4  C   LIG    1        4.326   0.029   0.054  0.00  0.00    +0.017 A 
ATOM      5  C   LIG    1        3.606   0.563   1.138  0.00  0.00    +0.131 A 
ATOM      6  F   LIG    1        4.246   1.115   2.196  0.00  0.00    -0.205 F 
ATOM      7  C   LIG    1        2.210   0.561   1.137  0.00  0.00    +0.043 A 
ENDROOT
BRANCH   4   8
ATOM      8  C   LIG    1        5.821   0.007   0.027  0.00  0.00    -0.015 A 
ATOM      9  C   LIG    1        6.559  -0.313   1.176  0.00  0.00    +0.008 A 
ATOM     10  C   LIG    1        7.951  -0.335   1.145  0.00  0.00    +0.001 A 
ATOM     11  C   LIG    1        8.619  -0.038  -0.039  0.00  0.00    +0.000 A 
ATOM     12  C   LIG    1        7.906   0.277  -1.192  0.00  0.00    +0.001 A 
ATOM     13  C   LIG    1        6.514   0.297  -1.157  0.00  0.00    +0.008 A 
ENDBRANCH   4   8
BRANCH   1  15
ATOM     14  C   LIG    1       -0.607   1.477  -0.033  0.00  0.00    +0.024 C 
ATOM     15  C   LIG    1       -0.042   0.035   0.043  0.00  0.00    +0.124 C 
BRANCH  15  16
ATOM     16  C   LIG    1       -0.606  -0.818   1.221  0.00  0.00    +0.312 C 
ATOM     17  O   LIG    1       -0.401  -2.054   1.177  0.00  0.00    -0.250 OA
BRANCH  16  18
ATOM     18  O   LIG    1       -1.241  -0.257   2.146  0.00  0.00    -0.480 OA
ATOM     19  H   LIG    1       -1.582  -0.766   2.855  0.00  0.00    +0.295 HD
ENDBRANCH  16  18
ENDBRANCH  15  16
ENDBRANCH   1  15
TORSDOF 4
