REMARK  Name = DB16144
REMARK                            x       y       z     vdW  Elec       q    Type
REMARK                         _______ _______ _______ _____ _____    ______ ____
ROOT
ATOM      1  C   LIG    1        2.235   0.535  -0.460  0.00  0.00    +0.169 C 
ATOM      2  C   LIG    1        2.716  -0.099   0.868  0.00  0.00    +0.235 C 
ATOM      3  O   LIG    1        2.819  -1.322   0.936  0.00  0.00    -0.274 OA
ATOM      4  N   LIG    1        2.990   0.677   1.934  0.00  0.00    -0.302 N 
ATOM      5  H   LIG    1        3.301   0.207   2.771  0.00  0.00    +0.150 HD
ATOM      6  C   LIG    1        2.939   2.134   2.062  0.00  0.00    +0.163 C 
ATOM      7  C   LIG    1        4.077   2.830   1.292  0.00  0.00    +0.234 C 
ATOM      8  O   LIG    1        5.162   2.264   1.153  0.00  0.00    -0.274 OA
ATOM      9  N   LIG    1        3.765   4.030   0.782  0.00  0.00    -0.302 N 
ATOM     10  H   LIG    1        2.867   4.430   1.013  0.00  0.00    +0.150 HD
ATOM     11  C   LIG    1        4.527   4.771  -0.230  0.00  0.00    +0.163 C 
ATOM     12  C   LIG    1        3.639   5.107  -1.451  0.00  0.00    +0.234 C 
ATOM     13  O   LIG    1        4.157   5.652  -2.423  0.00  0.00    -0.274 OA
ATOM     14  N   LIG    1        2.331   4.807  -1.344  0.00  0.00    -0.302 N 
ATOM     15  H   LIG    1        2.053   4.327  -0.501  0.00  0.00    +0.150 HD
ATOM     16  C   LIG    1        1.198   5.137  -2.210  0.00  0.00    +0.159 C 
ATOM     17  C   LIG    1        0.579   3.882  -2.872  0.00  0.00    +0.234 C 
ATOM     18  O   LIG    1       -0.155   3.211  -2.147  0.00  0.00    -0.274 OA
ATOM     19  N   LIG    1        0.775   3.474  -4.144  0.00  0.00    -0.302 N 
ATOM     20  H   LIG    1        0.275   2.625  -4.367  0.00  0.00    +0.150 HD
ATOM     21  C   LIG    1        1.543   3.923  -5.314  0.00  0.00    +0.159 C 
ATOM     22  C   LIG    1        3.053   4.112  -5.089  0.00  0.00    +0.234 C 
ATOM     23  O   LIG    1        3.589   5.186  -5.362  0.00  0.00    -0.274 OA
ATOM     24  N   LIG    1        3.720   3.031  -4.650  0.00  0.00    -0.302 N 
ATOM     25  H   LIG    1        3.207   2.189  -4.433  0.00  0.00    +0.150 HD
ATOM     26  C   LIG    1        5.183   2.917  -4.590  0.00  0.00    +0.169 C 
ATOM     27  C   LIG    1        5.544   1.595  -3.895  0.00  0.00    +0.112 C 
ATOM     28  S   LIG    1        5.244   1.576  -2.111  0.00  0.00    -0.091 S 
ATOM     29  S   LIG    1        4.620  -0.324  -1.748  0.00  0.00    -0.091 S 
ATOM     30  C   LIG    1        2.808  -0.185  -1.709  0.00  0.00    +0.112 C 
ENDROOT
BRANCH   1  32
ATOM     31  C   LIG    1       -0.112  -0.387  -0.540  0.00  0.00    +0.234 C 
ATOM     32  N   LIG    1        0.772   0.627  -0.493  0.00  0.00    -0.302 N 
ATOM     33  H   LIG    1        0.409   1.563  -0.384  0.00  0.00    +0.150 HD
ATOM     34  O   LIG    1        0.188  -1.571  -0.692  0.00  0.00    -0.274 OA
BRANCH  31  35
ATOM     35  C   LIG    1       -1.583   0.009  -0.317  0.00  0.00    +0.159 C 
BRANCH  35  36
ATOM     36  N   LIG    1       -1.853   0.188   1.117  0.00  0.00    -0.303 N 
ATOM     37  H   LIG    1       -2.061   1.136   1.393  0.00  0.00    +0.149 HD
ATOM     38  C   LIG    1       -1.820  -0.762   2.072  0.00  0.00    +0.223 C 
ATOM     39  O   LIG    1       -1.592  -1.950   1.840  0.00  0.00    -0.275 OA
BRANCH  38  40
ATOM     40  C   LIG    1       -2.072  -0.285   3.510  0.00  0.00    +0.164 C 
BRANCH  40  41
ATOM     41  S   LIG    1       -1.214  -1.258   4.792  0.00  0.00    -0.151 S 
BRANCH  41  42
ATOM     42  C   LIG    1        0.524  -0.799   4.508  0.00  0.00    +0.071 C 
BRANCH  42  43
ATOM     43  C   LIG    1        1.578  -1.699   5.191  0.00  0.00    -0.017 C 
ATOM     44  C   LIG    1        1.487  -1.672   6.729  0.00  0.00    +0.009 C 
ATOM     45  C   LIG    1        2.505  -2.644   7.363  0.00  0.00    +0.007 C 
ATOM     46  C   LIG    1        2.425  -2.719   8.895  0.00  0.00    -0.036 A 
ATOM     47  C   LIG    1        1.282  -2.516   9.683  0.00  0.00    +0.004 A 
ATOM     48  C   LIG    1        1.315  -2.620  11.078  0.00  0.00    +0.002 A 
ATOM     49  C   LIG    1        2.485  -2.937  11.778  0.00  0.00    +0.026 A 
ATOM     50  C   LIG    1        3.631  -3.152  11.008  0.00  0.00    +0.047 A 
ATOM     51  N   LIG    1        4.943  -3.473  11.302  0.00  0.00    -0.360 N 
ATOM     52  H   LIG    1        5.348  -3.627  12.214  0.00  0.00    +0.165 HD
ATOM     53  C   LIG    1        5.682  -3.565  10.138  0.00  0.00    +0.087 A 
ATOM     54  C   LIG    1        4.869  -3.312   9.046  0.00  0.00    -0.024 A 
ATOM     55  C   LIG    1        5.038  -3.276   7.534  0.00  0.00    +0.022 C 
ATOM     56  C   LIG    1        3.585  -3.051   9.603  0.00  0.00    +0.006 A 
ATOM     57  C   LIG    1        3.976  -2.306   6.911  0.00  0.00    -0.057 C 
ATOM     58  N   LIG    1        4.056  -2.272   5.350  0.00  0.00    +0.382 N 
ATOM     59  H   LIG    1        3.835  -3.202   5.025  0.00  0.00    -0.081 HD
ATOM     60  C   LIG    1        3.001  -1.307   4.746  0.00  0.00    -0.074 C 
BRANCH  58  61
ATOM     61  C   LIG    1        5.490  -1.912   4.857  0.00  0.00    -0.079 C 
BRANCH  61  62
ATOM     62  C   LIG    1        5.625  -1.780   3.324  0.00  0.00    -0.022 C 
ATOM     63  C   LIG    1        5.211  -3.038   2.544  0.00  0.00    +0.002 C 
ENDBRANCH  61  62
ENDBRANCH  58  61
ENDBRANCH  42  43
ENDBRANCH  41  42
ENDBRANCH  40  41
ENDBRANCH  38  40
ENDBRANCH  35  36
BRANCH  35  64
ATOM     64  C   LIG    1       -2.563  -0.962  -1.026  0.00  0.00    +0.032 C 
BRANCH  64  65
ATOM     65  C   LIG    1       -4.048  -0.594  -0.841  0.00  0.00    +0.004 C 
BRANCH  65  66
ATOM     66  C   LIG    1       -4.990  -1.483  -1.679  0.00  0.00    +0.019 C 
BRANCH  66  67
ATOM     67  C   LIG    1       -6.488  -1.274  -1.390  0.00  0.00    +0.104 C 
BRANCH  67  69
ATOM     68  C   LIG    1       -7.806   0.783  -0.868  0.00  0.00    +0.223 C 
ATOM     69  N   LIG    1       -6.922   0.105  -1.621  0.00  0.00    -0.315 N 
ATOM     70  H   LIG    1       -6.554   0.550  -2.448  0.00  0.00    +0.149 HD
ATOM     71  O   LIG    1       -8.374   0.311   0.118  0.00  0.00    -0.275 OA
BRANCH  68  72
ATOM     72  C   LIG    1       -8.085   2.226  -1.288  0.00  0.00    +0.164 C 
BRANCH  72  73
ATOM     73  S   LIG    1       -9.544   2.358  -2.365  0.00  0.00    -0.151 S 
BRANCH  73  74
ATOM     74  C   LIG    1       -9.533   4.139  -2.749  0.00  0.00    +0.071 C 
BRANCH  74  79
ATOM     75  C   LIG    1       -7.381   4.250  -6.673  0.00  0.00    -0.057 C 
ATOM     76  N   LIG    1       -6.654   4.719  -5.370  0.00  0.00    +0.382 N 
ATOM     77  H   LIG    1       -6.733   5.725  -5.341  0.00  0.00    -0.081 HD
ATOM     78  C   LIG    1       -7.347   4.163  -4.098  0.00  0.00    -0.074 C 
ATOM     79  C   LIG    1       -8.832   4.576  -4.058  0.00  0.00    -0.017 C 
ATOM     80  C   LIG    1       -9.562   4.070  -5.316  0.00  0.00    +0.009 C 
ATOM     81  C   LIG    1       -8.909   4.629  -6.598  0.00  0.00    +0.007 C 
ATOM     82  C   LIG    1       -9.623   4.215  -7.893  0.00  0.00    -0.036 A 
ATOM     83  C   LIG    1      -10.990   3.936  -8.039  0.00  0.00    +0.004 A 
ATOM     84  C   LIG    1      -11.547   3.579  -9.273  0.00  0.00    +0.002 A 
ATOM     85  C   LIG    1      -10.779   3.480 -10.439  0.00  0.00    +0.026 A 
ATOM     86  C   LIG    1       -9.416   3.763 -10.313  0.00  0.00    +0.047 A 
ATOM     87  N   LIG    1       -8.349   3.775 -11.192  0.00  0.00    -0.360 N 
ATOM     88  H   LIG    1       -8.364   3.564 -12.180  0.00  0.00    +0.165 HD
ATOM     89  C   LIG    1       -7.191   4.130 -10.527  0.00  0.00    +0.087 A 
ATOM     90  C   LIG    1       -7.470   4.367  -9.192  0.00  0.00    -0.024 A 
ATOM     91  C   LIG    1       -8.868   4.128  -9.068  0.00  0.00    +0.006 A 
ATOM     92  C   LIG    1       -6.683   4.801  -7.964  0.00  0.00    +0.022 C 
BRANCH  76  93
ATOM     93  C   LIG    1       -5.141   4.351  -5.400  0.00  0.00    -0.079 C 
BRANCH  93  94
ATOM     94  C   LIG    1       -4.402   4.652  -4.079  0.00  0.00    -0.022 C 
ATOM     95  C   LIG    1       -2.882   4.507  -4.217  0.00  0.00    +0.002 C 
ENDBRANCH  93  94
ENDBRANCH  76  93
ENDBRANCH  74  79
ENDBRANCH  73  74
ENDBRANCH  72  73
ENDBRANCH  68  72
ENDBRANCH  67  69
ENDBRANCH  66  67
ENDBRANCH  65  66
ENDBRANCH  64  65
ENDBRANCH  35  64
ENDBRANCH  31  35
ENDBRANCH   1  32
BRANCH  26  96
ATOM     96  C   LIG    1        5.870   2.979  -5.970  0.00  0.00    +0.235 C 
ATOM     97  N   LIG    1        5.148   2.578  -7.030  0.00  0.00    -0.300 N 
ATOM     98  H   LIG    1        4.204   2.252  -6.888  0.00  0.00    +0.150 HD
ATOM     99  O   LIG    1        7.027   3.394  -6.035  0.00  0.00    -0.274 OA
BRANCH  97 100
ATOM    100  C   LIG    1        5.593   2.620  -8.423  0.00  0.00    +0.187 C 
BRANCH 100 101
ATOM    101  C   LIG    1        4.475   3.243  -9.287  0.00  0.00    +0.233 C 
ATOM    102  O   LIG    1        3.318   2.831  -9.203  0.00  0.00    -0.274 OA
ATOM    103  N   LIG    1        4.834   4.217 -10.128  0.00  0.00    -0.328 N 
ATOM    104  H   LIG    1        4.144   4.654 -10.721  0.00  0.00    +0.145 HD
ATOM    105  H   LIG    1        5.793   4.530 -10.170  0.00  0.00    +0.145 HD
ENDBRANCH 100 101
BRANCH 100 106
ATOM    106  C   LIG    1        5.885   1.185  -8.949  0.00  0.00    +0.141 C 
ATOM    107  C   LIG    1        6.260   1.092 -10.441  0.00  0.00    +0.040 C 
BRANCH 106 108
ATOM    108  O   LIG    1        6.955   0.630  -8.208  0.00  0.00    -0.390 OA
ATOM    109  H   LIG    1        7.757   1.116  -8.416  0.00  0.00    +0.210 HD
ENDBRANCH 106 108
ENDBRANCH 100 106
ENDBRANCH  97 100
ENDBRANCH  26  96
BRANCH  21 110
ATOM    110  C   LIG    1        0.858   5.036  -6.145  0.00  0.00    +0.028 C 
ATOM    111  C   LIG    1        1.309   5.093  -7.615  0.00  0.00    +0.006 C 
ENDBRANCH  21 110
BRANCH   6 112
ATOM    112  C   LIG    1        2.959   2.473   3.568  0.00  0.00    +0.067 C 
BRANCH 112 113
ATOM    113  C   LIG    1        2.855   3.946   3.927  0.00  0.00    -0.045 A 
ATOM    114  C   LIG    1        1.703   4.680   3.574  0.00  0.00    +0.007 A 
ATOM    115  C   LIG    1        1.600   6.043   3.912  0.00  0.00    +0.045 A 
ATOM    116  C   LIG    1        2.644   6.675   4.615  0.00  0.00    +0.117 A 
ATOM    117  C   LIG    1        3.791   5.942   4.977  0.00  0.00    +0.045 A 
ATOM    118  C   LIG    1        3.901   4.583   4.627  0.00  0.00    +0.007 A 
BRANCH 116 119
ATOM    119  O   LIG    1        2.547   7.995   4.948  0.00  0.00    -0.507 OA
ATOM    120  H   LIG    1        1.723   8.397   4.663  0.00  0.00    +0.292 HD
ENDBRANCH 116 119
ENDBRANCH 112 113
ENDBRANCH   6 112
BRANCH  16 121
ATOM    121  C   LIG    1        1.305   6.481  -2.972  0.00  0.00    +0.032 C 
BRANCH 121 122
ATOM    122  C   LIG    1       -0.028   7.051  -3.500  0.00  0.00    +0.000 C 
BRANCH 122 123
ATOM    123  C   LIG    1       -0.980   7.552  -2.401  0.00  0.00    -0.019 C 
BRANCH 123 124
ATOM    124  C   LIG    1       -2.212   8.266  -2.981  0.00  0.00    -0.086 C 
BRANCH 124 125
ATOM    125  N   LIG    1       -3.098   8.774  -1.919  0.00  0.00    +0.378 N 
ATOM    126  H   LIG    1       -3.415   8.006  -1.344  0.00  0.00    -0.090 HD
ATOM    127  H   LIG    1       -2.591   9.434  -1.347  0.00  0.00    -0.090 HD
ATOM    128  H   LIG    1       -3.894   9.236  -2.336  0.00  0.00    -0.090 HD
ENDBRANCH 124 125
ENDBRANCH 123 124
ENDBRANCH 122 123
ENDBRANCH 121 122
ENDBRANCH  16 121
BRANCH  11 129
ATOM    129  C   LIG    1        5.084   6.075   0.386  0.00  0.00    +0.069 C 
BRANCH 129 130
ATOM    130  C   LIG    1        6.005   5.967   1.568  0.00  0.00    -0.020 A 
ATOM    131  C   LIG    1        6.183   6.922   2.661  0.00  0.00    +0.003 A 
ATOM    132  C   LIG    1        5.583   8.155   3.011  0.00  0.00    +0.010 A 
ATOM    133  C   LIG    1        5.970   8.854   4.173  0.00  0.00    +0.001 A 
ATOM    134  C   LIG    1        6.973   8.336   5.016  0.00  0.00    +0.002 A 
ATOM    135  C   LIG    1        7.597   7.117   4.694  0.00  0.00    +0.026 A 
ATOM    136  C   LIG    1        7.204   6.431   3.532  0.00  0.00    +0.047 A 
ATOM    137  N   LIG    1        7.616   5.254   2.943  0.00  0.00    -0.360 N 
ATOM    138  H   LIG    1        8.346   4.647   3.289  0.00  0.00    +0.165 HD
ATOM    139  C   LIG    1        6.927   4.998   1.777  0.00  0.00    +0.087 A 
ENDBRANCH 129 130
ENDBRANCH  11 129
TORSDOF 36
