REMARK  Name = DB17670
REMARK                            x       y       z     vdW  Elec       q    Type
REMARK                         _______ _______ _______ _____ _____    ______ ____
ROOT
ATOM      1  C   LIG    1       -0.252   2.574  -0.023  0.00  0.00    +0.044 C 
ATOM      2  C   LIG    1       -0.892   1.191   0.001  0.00  0.00    -0.043 A 
ATOM      3  C   LIG    1       -0.128   0.014  -0.128  0.00  0.00    -0.037 A 
ATOM      4  C   LIG    1       -0.782  -1.234  -0.117  0.00  0.00    -0.043 A 
ATOM      5  C   LIG    1       -0.017  -2.543  -0.270  0.00  0.00    +0.044 C 
ATOM      6  C   LIG    1       -2.173  -1.291   0.013  0.00  0.00    +0.049 A 
ATOM      7  C   LIG    1       -2.937  -0.122   0.137  0.00  0.00    +0.122 A 
ATOM      8  C   LIG    1       -2.281   1.107   0.128  0.00  0.00    +0.049 A 
ENDROOT
BRANCH   3   9
ATOM      9  C   LIG    1        1.404   0.087  -0.241  0.00  0.00    +0.070 C 
BRANCH   9  10
ATOM     10  C   LIG    1        1.990   0.109  -1.654  0.00  0.00    -0.043 A 
ATOM     11  C   LIG    1        3.376   0.000  -1.805  0.00  0.00    +0.011 A 
ATOM     12  C   LIG    1        3.967  -0.001  -3.073  0.00  0.00    -0.001 A 
ATOM     13  C   LIG    1        3.153   0.128  -4.209  0.00  0.00    +0.120 A 
ATOM     14  C   LIG    1        1.770   0.237  -4.065  0.00  0.00    +0.046 A 
ATOM     15  C   LIG    1        1.190   0.227  -2.798  0.00  0.00    +0.007 A 
BRANCH  13  16
ATOM     16  O   LIG    1        3.687   0.143  -5.472  0.00  0.00    -0.506 OA
ATOM     17  H   LIG    1        3.018   0.225  -6.157  0.00  0.00    +0.292 HD
ENDBRANCH  13  16
BRANCH  12  18
ATOM     18  C   LIG    1        5.486  -0.104  -3.182  0.00  0.00    +0.074 C 
BRANCH  18  19
ATOM     19  C   LIG    1        5.984  -1.540  -3.266  0.00  0.00    -0.043 A 
ATOM     20  C   LIG    1        6.274  -2.246  -2.095  0.00  0.00    +0.004 A 
ATOM     21  C   LIG    1        6.742  -3.555  -2.171  0.00  0.00    +0.000 A 
ATOM     22  C   LIG    1        6.925  -4.151  -3.417  0.00  0.00    +0.000 A 
ATOM     23  C   LIG    1        6.648  -3.449  -4.588  0.00  0.00    +0.000 A 
ATOM     24  C   LIG    1        6.180  -2.140  -4.513  0.00  0.00    +0.004 A 
ENDBRANCH  18  19
ENDBRANCH  12  18
ENDBRANCH   9  10
ENDBRANCH   3   9
BRANCH   7  25
ATOM     25  O   LIG    1       -4.312  -0.092   0.264  0.00  0.00    -0.480 OA
BRANCH  25  26
ATOM     26  C   LIG    1       -5.043  -1.317   0.270  0.00  0.00    +0.355 C 
BRANCH  26  27
ATOM     27  P   LIG    1       -6.900  -0.964   0.435  0.00  0.00    +0.365 P 
ATOM     28  O   LIG    1       -7.507  -2.379   0.435  0.00  0.00    -0.255 OA
BRANCH  27  29
ATOM     29  O   LIG    1       -7.196  -0.118  -0.818  0.00  0.00    -0.322 OA
ATOM     30  H   LIG    1       -6.776   0.751  -0.728  0.00  0.00    +0.220 HD
ENDBRANCH  27  29
BRANCH  27  31
ATOM     31  O   LIG    1       -6.982  -0.211   1.777  0.00  0.00    -0.322 OA
ATOM     32  H   LIG    1       -6.577   0.665   1.681  0.00  0.00    +0.220 HD
ENDBRANCH  27  31
ENDBRANCH  26  27
ENDBRANCH  25  26
ENDBRANCH   7  25
TORSDOF 10
