REMARK  Name = DB17202
REMARK                            x       y       z     vdW  Elec       q    Type
REMARK                         _______ _______ _______ _____ _____    ______ ____
ROOT
ATOM      1  C   LIG    1       -2.162   3.567  -0.787  0.00  0.00    -0.033 C 
ATOM      2  N   LIG    1       -2.761   4.979  -1.028  0.00  0.00    +0.383 N 
ATOM      3  H   LIG    1       -2.769   5.479  -0.150  0.00  0.00    -0.081 HD
ATOM      4  C   LIG    1       -4.210   4.897  -1.559  0.00  0.00    -0.095 C 
ATOM      5  C   LIG    1       -1.911   5.783  -2.033  0.00  0.00    -0.074 C 
ATOM      6  C   LIG    1       -0.539   6.049  -1.400  0.00  0.00    +0.017 C 
ATOM      7  C   LIG    1        0.122   4.788  -0.855  0.00  0.00    -0.047 A 
ATOM      8  C   LIG    1        1.496   4.779  -0.611  0.00  0.00    +0.004 A 
ATOM      9  C   LIG    1        2.114   3.679  -0.032  0.00  0.00    +0.001 A 
ATOM     10  C   LIG    1        1.364   2.554   0.281  0.00  0.00    +0.009 A 
ATOM     11  C   LIG    1       -0.007   2.494  -0.005  0.00  0.00    -0.012 A 
ATOM     12  C   LIG    1       -0.840   1.271   0.304  0.00  0.00    +0.032 A 
ATOM     13  C   LIG    1       -0.332  -0.052   0.284  0.00  0.00    +0.182 A 
ATOM     14  C   LIG    1       -1.160  -1.134   0.625  0.00  0.00    +0.174 A 
ATOM     15  C   LIG    1       -2.494  -0.909   0.961  0.00  0.00    +0.050 A 
ATOM     16  C   LIG    1       -3.017   0.376   0.905  0.00  0.00    +0.008 A 
ATOM     17  C   LIG    1       -2.215   1.468   0.566  0.00  0.00    -0.037 A 
ATOM     18  C   LIG    1       -0.639   3.637  -0.549  0.00  0.00    -0.050 A 
ATOM     19  C   LIG    1       -2.811   2.866   0.432  0.00  0.00    +0.025 C 
ENDROOT
BRANCH  14  20
ATOM     20  O   LIG    1       -0.654  -2.417   0.636  0.00  0.00    -0.422 OA
BRANCH  20  21
ATOM     21  C   LIG    1       -0.887  -3.235  -0.429  0.00  0.00    +0.312 C 
ATOM     22  O   LIG    1       -1.646  -3.014  -1.376  0.00  0.00    -0.250 OA
BRANCH  21  23
ATOM     23  C   LIG    1       -0.044  -4.509  -0.377  0.00  0.00    +0.121 C 
BRANCH  23  24
ATOM     24  C   LIG    1        1.429  -4.242  -0.753  0.00  0.00    +0.011 C 
BRANCH  24  25
ATOM     25  C   LIG    1        2.305  -5.508  -0.795  0.00  0.00    +0.001 C 
BRANCH  25  26
ATOM     26  C   LIG    1        1.947  -6.479  -1.936  0.00  0.00    +0.000 C 
BRANCH  26  27
ATOM     27  C   LIG    1        2.926  -7.661  -2.051  0.00  0.00    +0.000 C 
BRANCH  27  28
ATOM     28  C   LIG    1        2.586  -8.607  -3.217  0.00  0.00    +0.000 C 
BRANCH  28  29
ATOM     29  C   LIG    1        3.589  -9.766  -3.365  0.00  0.00    -0.000 C 
BRANCH  29  30
ATOM     30  C   LIG    1        3.264 -10.687  -4.555  0.00  0.00    -0.000 C 
BRANCH  30  31
ATOM     31  C   LIG    1        4.289 -11.821  -4.735  0.00  0.00    -0.000 C 
BRANCH  31  32
ATOM     32  C   LIG    1        3.975 -12.723  -5.942  0.00  0.00    -0.000 C 
BRANCH  32  33
ATOM     33  C   LIG    1        5.020 -13.834  -6.150  0.00  0.00    -0.000 C 
BRANCH  33  34
ATOM     34  C   LIG    1        4.710 -14.725  -7.367  0.00  0.00    -0.000 C 
BRANCH  34  35
ATOM     35  C   LIG    1        5.767 -15.824  -7.590  0.00  0.00    -0.000 C 
BRANCH  35  36
ATOM     36  C   LIG    1        5.454 -16.773  -8.764  0.00  0.00    -0.003 C 
ATOM     37  C   LIG    1        5.477 -16.101 -10.146  0.00  0.00    +0.004 C 
ENDBRANCH  35  36
ENDBRANCH  34  35
ENDBRANCH  33  34
ENDBRANCH  32  33
ENDBRANCH  31  32
ENDBRANCH  30  31
ENDBRANCH  29  30
ENDBRANCH  28  29
ENDBRANCH  27  28
ENDBRANCH  26  27
ENDBRANCH  25  26
ENDBRANCH  24  25
ENDBRANCH  23  24
ENDBRANCH  21  23
ENDBRANCH  20  21
ENDBRANCH  14  20
BRANCH  13  38
ATOM     38  O   LIG    1        0.968  -0.321  -0.095  0.00  0.00    -0.421 OA
BRANCH  38  39
ATOM     39  C   LIG    1        1.257  -0.472  -1.419  0.00  0.00    +0.312 C 
ATOM     40  O   LIG    1        0.448  -0.453  -2.350  0.00  0.00    -0.250 OA
BRANCH  39  41
ATOM     41  C   LIG    1        2.763  -0.618  -1.668  0.00  0.00    +0.121 C 
BRANCH  41  42
ATOM     42  C   LIG    1        3.283   0.163  -2.896  0.00  0.00    +0.011 C 
BRANCH  42  43
ATOM     43  C   LIG    1        3.151   1.694  -2.764  0.00  0.00    +0.001 C 
BRANCH  43  44
ATOM     44  C   LIG    1        3.662   2.461  -3.994  0.00  0.00    +0.000 C 
BRANCH  44  45
ATOM     45  C   LIG    1        3.485   3.984  -3.857  0.00  0.00    +0.000 C 
BRANCH  45  46
ATOM     46  C   LIG    1        3.969   4.755  -5.096  0.00  0.00    +0.000 C 
BRANCH  46  47
ATOM     47  C   LIG    1        3.790   6.280  -4.964  0.00  0.00    -0.000 C 
BRANCH  47  48
ATOM     48  C   LIG    1        4.334   7.088  -6.160  0.00  0.00    -0.000 C 
BRANCH  48  49
ATOM     49  C   LIG    1        3.573   6.856  -7.480  0.00  0.00    -0.000 C 
BRANCH  49  50
ATOM     50  C   LIG    1        4.085   7.739  -8.632  0.00  0.00    -0.000 C 
BRANCH  50  51
ATOM     51  C   LIG    1        3.326   7.496  -9.951  0.00  0.00    -0.000 C 
BRANCH  51  52
ATOM     52  C   LIG    1        3.758   8.413 -11.112  0.00  0.00    -0.000 C 
BRANCH  52  53
ATOM     53  C   LIG    1        5.190   8.160 -11.622  0.00  0.00    -0.000 C 
BRANCH  53  54
ATOM     54  C   LIG    1        5.561   9.043 -12.827  0.00  0.00    -0.003 C 
ATOM     55  C   LIG    1        6.981   8.778 -13.347  0.00  0.00    +0.004 C 
ENDBRANCH  53  54
ENDBRANCH  52  53
ENDBRANCH  51  52
ENDBRANCH  50  51
ENDBRANCH  49  50
ENDBRANCH  48  49
ENDBRANCH  47  48
ENDBRANCH  46  47
ENDBRANCH  45  46
ENDBRANCH  44  45
ENDBRANCH  43  44
ENDBRANCH  42  43
ENDBRANCH  41  42
ENDBRANCH  39  41
ENDBRANCH  38  39
ENDBRANCH  13  38
TORSDOF 32
