REMARK  Name = DB17083
REMARK                            x       y       z     vdW  Elec       q    Type
REMARK                         _______ _______ _______ _____ _____    ______ ____
ROOT
ATOM      1  C   LIG    1       -0.660   1.147  -0.328  0.00  0.00    +0.164 A 
ATOM      2  C   LIG    1       -2.054   1.256  -0.478  0.00  0.00    +0.089 A 
ATOM      3  C   LIG    1       -2.867   0.126  -0.450  0.00  0.00    +0.151 A 
ATOM      4  F   LIG    1       -4.206   0.266  -0.596  0.00  0.00    -0.203 F 
ATOM      5  C   LIG    1       -2.296  -1.140  -0.270  0.00  0.00    +0.093 A 
ATOM      6  C   LIG    1       -0.909  -1.257  -0.122  0.00  0.00    +0.078 A 
ATOM      7  C   LIG    1       -0.083  -0.121  -0.151  0.00  0.00    +0.165 A 
ENDROOT
BRANCH   5   8
ATOM      8  N   LIG    1       -3.109  -2.304  -0.238  0.00  0.00    -0.226 N 
ATOM      9  C   LIG    1       -3.587  -2.679   1.013  0.00  0.00    +0.270 A 
ATOM     10  O   LIG    1       -3.302  -2.063   2.046  0.00  0.00    -0.266 OA
ATOM     11  C   LIG    1       -4.433  -3.881   0.943  0.00  0.00    +0.084 A 
ATOM     12  C   LIG    1       -5.123  -4.558   1.978  0.00  0.00    +0.110 A 
ATOM     13  S   LIG    1       -5.952  -5.983   1.398  0.00  0.00    -0.087 S 
ATOM     14  C   LIG    1       -5.395  -5.694  -0.205  0.00  0.00    +0.072 A 
ATOM     15  C   LIG    1       -4.614  -4.553  -0.292  0.00  0.00    +0.064 A 
ATOM     16  N   LIG    1       -4.030  -4.049  -1.429  0.00  0.00    -0.306 N 
ATOM     17  H   LIG    1       -4.157  -4.508  -2.319  0.00  0.00    +0.170 HD
ATOM     18  C   LIG    1       -3.289  -2.918  -1.468  0.00  0.00    +0.334 A 
ATOM     19  O   LIG    1       -2.843  -2.535  -2.553  0.00  0.00    -0.246 OA
BRANCH  12  20
ATOM     20  C   LIG    1       -5.274  -4.193   3.372  0.00  0.00    +0.344 C 
ATOM     21  O   LIG    1       -5.367  -3.031   3.759  0.00  0.00    -0.245 OA
BRANCH  20  22
ATOM     22  O   LIG    1       -5.284  -5.274   4.209  0.00  0.00    -0.477 OA
ATOM     23  H   LIG    1       -5.375  -5.019   5.130  0.00  0.00    +0.295 HD
ENDBRANCH  20  22
ENDBRANCH  12  20
ENDBRANCH   5   8
BRANCH   1  25
ATOM     24  C   LIG    1       -0.328   3.542  -0.521  0.00  0.00    +0.277 C 
ATOM     25  O   LIG    1        0.200   2.232  -0.346  0.00  0.00    -0.491 OA
ENDBRANCH   1  25
BRANCH   7  26
ATOM     26  O   LIG    1        1.293  -0.171  -0.013  0.00  0.00    -0.483 OA
BRANCH  26  27
ATOM     27  C   LIG    1        1.942  -1.431   0.138  0.00  0.00    +0.271 C 
BRANCH  27  28
ATOM     28  C   LIG    1        3.447  -1.198   0.227  0.00  0.00    +0.069 A 
ATOM     29  C   LIG    1        4.207  -1.151  -0.951  0.00  0.00    +0.168 A 
ATOM     30  F   LIG    1        3.613  -1.310  -2.158  0.00  0.00    -0.202 F 
ATOM     31  C   LIG    1        5.583  -0.935  -0.892  0.00  0.00    +0.159 A 
ATOM     32  F   LIG    1        6.314  -0.892  -2.029  0.00  0.00    -0.202 F 
ATOM     33  C   LIG    1        6.208  -0.763   0.339  0.00  0.00    +0.045 A 
ATOM     34  C   LIG    1        5.460  -0.803   1.513  0.00  0.00    +0.049 A 
ATOM     35  C   LIG    1        4.071  -1.018   1.475  0.00  0.00    +0.129 A 
BRANCH  35  36
ATOM     36  O   LIG    1        3.275  -1.059   2.607  0.00  0.00    -0.495 OA
ATOM     37  C   LIG    1        3.867  -0.882   3.890  0.00  0.00    +0.277 C 
ENDBRANCH  35  36
ENDBRANCH  27  28
ENDBRANCH  26  27
ENDBRANCH   7  26
TORSDOF 8
