REMARK  Name = DB17308
REMARK                            x       y       z     vdW  Elec       q    Type
REMARK                         _______ _______ _______ _____ _____    ______ ____
ROOT
ATOM      1  C   LIG    1        1.965  -3.649  -1.336  0.00  0.00    +0.002 C 
ENDROOT
BRANCH   1   2
ATOM      2  C   LIG    1        1.366  -2.232  -1.307  0.00  0.00    +0.000 C 
BRANCH   2   3
ATOM      3  C   LIG    1        1.801  -1.422  -0.069  0.00  0.00    +0.000 C 
BRANCH   3   4
ATOM      4  C   LIG    1        1.319   0.042  -0.065  0.00  0.00    +0.000 C 
BRANCH   4   5
ATOM      5  C   LIG    1       -0.211   0.208   0.022  0.00  0.00    -0.000 C 
BRANCH   5   6
ATOM      6  C   LIG    1       -0.650   1.680   0.118  0.00  0.00    -0.000 C 
BRANCH   6   7
ATOM      7  C   LIG    1       -2.179   1.845   0.184  0.00  0.00    -0.000 C 
BRANCH   7   8
ATOM      8  C   LIG    1       -2.622   3.316   0.284  0.00  0.00    -0.000 C 
BRANCH   8  10
ATOM      9  C   LIG    1       -4.595   4.946   0.411  0.00  0.00    +0.004 C 
ATOM     10  C   LIG    1       -4.152   3.479   0.331  0.00  0.00    -0.003 C 
ENDBRANCH   8  10
ENDBRANCH   7   8
ENDBRANCH   6   7
ENDBRANCH   5   6
ENDBRANCH   4   5
ENDBRANCH   3   4
ENDBRANCH   2   3
ENDBRANCH   1   2
BRANCH   1  11
ATOM     11  C   LIG    1        1.516  -4.463  -2.562  0.00  0.00    +0.019 C 
BRANCH  11  12
ATOM     12  C   LIG    1        2.128  -5.876  -2.586  0.00  0.00    +0.108 C 
BRANCH  12  13
ATOM     13  N   LIG    1        1.704  -6.675  -3.747  0.00  0.00    -0.301 N 
ATOM     14  C   LIG    1        0.589  -7.452  -3.623  0.00  0.00    +0.216 C 
ATOM     15  O   LIG    1       -0.114  -7.510  -2.611  0.00  0.00    -0.276 OA
ATOM     16  C   LIG    1        0.159  -8.195  -4.903  0.00  0.00    +0.096 C 
ATOM     17  C   LIG    1       -0.337  -7.307  -6.062  0.00  0.00    +0.009 C 
ATOM     18  C   LIG    1        0.787  -6.694  -6.914  0.00  0.00    +0.002 C 
ATOM     19  C   LIG    1        1.802  -5.829  -6.145  0.00  0.00    +0.019 C 
ATOM     20  C   LIG    1        2.507  -6.545  -4.975  0.00  0.00    +0.108 C 
ENDBRANCH  12  13
ENDBRANCH  11  12
ENDBRANCH   1  11
TORSDOF 11
