REMARK  Name = DB17047
REMARK                            x       y       z     vdW  Elec       q    Type
REMARK                         _______ _______ _______ _____ _____    ______ ____
ROOT
ATOM      1  C   LIG    1       -0.475   1.828   0.553  0.00  0.00    +0.181 C 
ATOM      2  N   LIG    1        0.052   0.451   0.643  0.00  0.00    -0.126 N 
ENDROOT
BRANCH   2   3
ATOM      3  S   LIG    1        1.809   0.302   0.355  0.00  0.00    +0.089 S 
ATOM      4  O   LIG    1        2.196  -1.111   0.439  0.00  0.00    -0.149 OA
ATOM      5  O   LIG    1        2.469   1.286   1.223  0.00  0.00    -0.149 OA
BRANCH   3   6
ATOM      6  C   LIG    1        2.076   0.830  -1.355  0.00  0.00    +0.115 A 
ATOM      7  C   LIG    1        1.531   0.143  -2.457  0.00  0.00    -0.024 A 
ATOM      8  C   LIG    1        0.634  -1.076  -2.303  0.00  0.00    +0.046 C 
ATOM      9  C   LIG    1        1.806   0.596  -3.750  0.00  0.00    +0.007 A 
ATOM     10  C   LIG    1        2.609   1.714  -3.959  0.00  0.00    +0.033 A 
ATOM     11  C   LIG    1        3.161   2.410  -2.876  0.00  0.00    +0.123 A 
ATOM     12  C   LIG    1        2.886   1.951  -1.580  0.00  0.00    +0.061 A 
BRANCH  11  13
ATOM     13  N   LIG    1        4.016   3.601  -3.097  0.00  0.00    +0.006 N 
ATOM     14  O   LIG    1        4.257   3.946  -4.250  0.00  0.00    -0.130 OA
BRANCH  13  15
ATOM     15  O   LIG    1        4.453   4.201  -2.119  0.00  0.00    -0.396 OA
ATOM     16  H   LIG    1        4.245   3.904  -1.255  0.00  0.00    +0.329 HD
ENDBRANCH  13  15
ENDBRANCH  11  13
ENDBRANCH   3   6
ENDBRANCH   2   3
BRANCH   2  17
ATOM     17  N   LIG    1       -0.539  -0.423   1.500  0.00  0.00    -0.170 NA
ATOM     18  C   LIG    1       -0.743  -1.616   1.116  0.00  0.00    +0.159 C 
BRANCH  18  19
ATOM     19  C   LIG    1       -1.367  -2.594   2.002  0.00  0.00    +0.086 A 
ATOM     20  N   LIG    1       -1.643  -3.905   1.662  0.00  0.00    -0.297 N 
ATOM     21  C   LIG    1       -1.445  -4.629   0.509  0.00  0.00    +0.108 A 
ATOM     22  C   LIG    1       -1.836  -5.963   0.459  0.00  0.00    +0.035 A 
ATOM     23 BR   LIG    1       -1.565  -6.973  -1.131  0.00  0.00    -0.049 Br
ATOM     24  C   LIG    1       -2.424  -6.559   1.572  0.00  0.00    +0.020 A 
ATOM     25  C   LIG    1       -2.631  -5.837   2.749  0.00  0.00    +0.048 A 
ATOM     26  C   LIG    1       -2.237  -4.486   2.802  0.00  0.00    +0.138 A 
ATOM     27  N   LIG    1       -2.332  -3.593   3.816  0.00  0.00    -0.235 NA
ATOM     28  C   LIG    1       -1.815  -2.490   3.324  0.00  0.00    +0.140 A 
ENDBRANCH  18  19
ENDBRANCH   2  17
TORSDOF 6
