REMARK  Name = DB17059
REMARK                            x       y       z     vdW  Elec       q    Type
REMARK                         _______ _______ _______ _____ _____    ______ ____
ROOT
ATOM      1  C   LIG    1        4.258  -0.509  -1.948  0.00  0.00    +0.252 C 
ATOM      2  N   LIG    1        5.571  -0.258  -2.152  0.00  0.00    -0.281 N 
ATOM      3  H   LIG    1        6.031   0.254  -1.412  0.00  0.00    +0.155 HD
ATOM      4  O   LIG    1        3.554  -1.089  -2.777  0.00  0.00    -0.270 OA
ENDROOT
BRANCH   1   7
ATOM      5  C   LIG    1        1.491   0.525   0.463  0.00  0.00    +0.003 A 
ATOM      6  C   LIG    1        2.218   0.053  -0.625  0.00  0.00    +0.024 A 
ATOM      7  C   LIG    1        3.623   0.011  -0.646  0.00  0.00    +0.083 A 
ATOM      8  C   LIG    1        4.313   0.450   0.531  0.00  0.00    +0.174 A 
ATOM      9  C   LIG    1        3.570   0.925   1.647  0.00  0.00    +0.202 A 
ATOM     10  C   LIG    1        2.170   0.958   1.604  0.00  0.00    +0.166 A 
BRANCH   8  11
ATOM     11  O   LIG    1        5.594   0.414   0.642  0.00  0.00    -0.503 OA
ATOM     12  H   LIG    1        6.005   0.711   1.430  0.00  0.00    +0.292 HD
ENDBRANCH   8  11
BRANCH   9  13
ATOM     13  O   LIG    1        4.180   1.369   2.810  0.00  0.00    -0.501 OA
ATOM     14  H   LIG    1        3.560   1.658   3.481  0.00  0.00    +0.292 HD
ENDBRANCH   9  13
BRANCH  10  15
ATOM     15  O   LIG    1        1.453   1.426   2.682  0.00  0.00    -0.503 OA
ATOM     16  H   LIG    1        2.003   1.707   3.415  0.00  0.00    +0.292 HD
ENDBRANCH  10  15
BRANCH   5  17
ATOM     17  C   LIG    1       -0.040   0.522   0.387  0.00  0.00    +0.074 C 
BRANCH  17  19
ATOM     18  C   LIG    1       -2.117   1.814  -0.405  0.00  0.00    -0.041 A 
ATOM     19  C   LIG    1       -0.726   1.794  -0.140  0.00  0.00    -0.040 A 
ATOM     20  C   LIG    1        0.027   2.958  -0.370  0.00  0.00    +0.004 A 
ATOM     21  C   LIG    1       -0.572   4.118  -0.851  0.00  0.00    +0.000 A 
ATOM     22  C   LIG    1       -1.936   4.136  -1.116  0.00  0.00    +0.000 A 
ATOM     23  C   LIG    1       -2.699   2.994  -0.896  0.00  0.00    +0.004 A 
BRANCH  18  25
ATOM     24  C   LIG    1       -3.081  -0.286  -1.462  0.00  0.00    +0.012 C 
ATOM     25  C   LIG    1       -3.003   0.573  -0.187  0.00  0.00    +0.013 C 
ATOM     26  C   LIG    1       -4.415   0.891   0.355  0.00  0.00    +0.012 C 
ENDBRANCH  18  25
ENDBRANCH  17  19
ENDBRANCH   5  17
ENDBRANCH   1   7
BRANCH   2  27
ATOM     27  C   LIG    1        6.410  -0.581  -3.237  0.00  0.00    +0.034 A 
ATOM     28  C   LIG    1        6.045  -1.388  -4.327  0.00  0.00    +0.025 A 
ATOM     29  C   LIG    1        6.958  -1.634  -5.348  0.00  0.00    +0.029 A 
ATOM     30  C   LIG    1        8.238  -1.082  -5.289  0.00  0.00    +0.094 A 
ATOM     31  C   LIG    1        8.610  -0.288  -4.204  0.00  0.00    +0.029 A 
ATOM     32  C   LIG    1        7.698  -0.042  -3.181  0.00  0.00    +0.025 A 
BRANCH  30  33
ATOM     33  S   LIG    1        9.393  -1.390  -6.633  0.00  0.00    +0.025 S 
ATOM     34  O   LIG    1        9.144  -2.777  -7.039  0.00  0.00    -0.164 OA
ATOM     35  O   LIG    1       10.717  -0.964  -6.165  0.00  0.00    -0.164 OA
BRANCH  33  36
ATOM     36  C   LIG    1        8.950  -0.304  -8.022  0.00  0.00    +0.097 A 
ATOM     37  C   LIG    1        9.358  -0.475  -9.383  0.00  0.00    -0.017 A 
ATOM     38  C   LIG    1        8.811   0.423 -10.326  0.00  0.00    +0.006 A 
ATOM     39  C   LIG    1        7.977   1.474  -9.966  0.00  0.00    +0.000 A 
ATOM     40  C   LIG    1        7.650   1.667  -8.636  0.00  0.00    +0.002 A 
ATOM     41  C   LIG    1        8.132   0.786  -7.679  0.00  0.00    +0.027 A 
BRANCH  37  42
ATOM     42  C   LIG    1       10.341  -1.577  -9.923  0.00  0.00    -0.011 C 
ATOM     43  C   LIG    1       11.531  -1.875  -8.969  0.00  0.00    +0.015 C 
ATOM     44  C   LIG    1        9.556  -2.872 -10.243  0.00  0.00    +0.015 C 
ATOM     45  C   LIG    1       11.036  -1.147 -11.256  0.00  0.00    +0.015 C 
ENDBRANCH  37  42
ENDBRANCH  33  36
ENDBRANCH  30  33
ENDBRANCH   2  27
TORSDOF 11
