REMARK  Name = DB17025
REMARK                            x       y       z     vdW  Elec       q    Type
REMARK                         _______ _______ _______ _____ _____    ______ ____
ROOT
ATOM      1  I   LIG    1       -1.653  -1.286   1.224  0.00  0.00    -0.076 I 
ATOM      2  C   LIG    1       -0.273  -1.654  -0.251  0.00  0.00    +0.016 A 
ATOM      3  C   LIG    1        0.002  -2.856  -0.900  0.00  0.00    +0.014 A 
ATOM      4  C   LIG    1        0.990  -2.884  -1.882  0.00  0.00    +0.001 A 
ATOM      5  C   LIG    1        1.686  -1.720  -2.202  0.00  0.00    +0.001 A 
ATOM      6  C   LIG    1        1.398  -0.523  -1.542  0.00  0.00    +0.009 A 
ATOM      7  C   LIG    1        0.411  -0.456  -0.548  0.00  0.00    -0.004 A 
ATOM      8  C   LIG    1        0.018   0.789   0.230  0.00  0.00    -0.004 A 
ATOM      9  C   LIG    1        0.582   2.064   0.075  0.00  0.00    +0.009 A 
ATOM     10  C   LIG    1        0.151   3.149   0.842  0.00  0.00    +0.001 A 
ATOM     11  C   LIG    1       -0.860   2.985   1.786  0.00  0.00    +0.001 A 
ATOM     12  C   LIG    1       -1.445   1.734   1.969  0.00  0.00    +0.014 A 
ATOM     13  C   LIG    1       -1.003   0.661   1.196  0.00  0.00    +0.016 A 
ENDROOT
TORSDOF 0
