REMARK  Name = DB17099
REMARK                            x       y       z     vdW  Elec       q    Type
REMARK                         _______ _______ _______ _____ _____    ______ ____
ROOT
ATOM      1  C   LIG    1       -2.135  -1.062   0.510  0.00  0.00    +0.129 A 
ATOM      2  C   LIG    1       -0.744  -1.220   0.433  0.00  0.00    +0.099 A 
ATOM      3  C   LIG    1       -0.004  -0.057   0.131  0.00  0.00    +0.090 A 
ATOM      4  N   LIG    1       -0.610   1.149  -0.050  0.00  0.00    -0.214 NA
ATOM      5  C   LIG    1       -1.967   1.194   0.041  0.00  0.00    +0.216 A 
ATOM      6  N   LIG    1       -2.758   0.128   0.312  0.00  0.00    -0.222 NA
ENDROOT
BRANCH   3   7
ATOM      7  C   LIG    1        1.481   0.007  -0.009  0.00  0.00    +0.026 A 
ATOM      8  C   LIG    1        2.281  -0.816  -0.776  0.00  0.00    +0.093 A 
ATOM      9  N   LIG    1        3.591  -0.441  -0.650  0.00  0.00    -0.359 N 
ATOM     10  H   LIG    1        4.335  -0.918  -1.139  0.00  0.00    +0.165 HD
ATOM     11  C   LIG    1        3.712   0.634   0.207  0.00  0.00    +0.059 A 
ATOM     12  C   LIG    1        4.842   1.358   0.642  0.00  0.00    +0.053 A 
ATOM     13  C   LIG    1        4.587   2.419   1.543  0.00  0.00    +0.064 A 
ATOM     14  C   LIG    1        3.292   2.711   1.974  0.00  0.00    +0.020 A 
ATOM     15  C   LIG    1        2.191   1.986   1.538  0.00  0.00    +0.012 A 
ATOM     16  C   LIG    1        2.380   0.933   0.636  0.00  0.00    +0.010 A 
BRANCH  12  17
ATOM     17  P   LIG    1        6.519   0.887   0.023  0.00  0.00    +0.114 P 
ATOM     18  C   LIG    1        6.708  -0.900   0.423  0.00  0.00    +0.086 C 
ATOM     19  O   LIG    1        7.644   1.707   0.545  0.00  0.00    -0.317 OA
ATOM     20  C   LIG    1        6.398   0.946  -1.812  0.00  0.00    +0.086 C 
ENDBRANCH  12  17
BRANCH  13  21
ATOM     21  C   LIG    1        5.643   3.271   2.082  0.00  0.00    +0.100 C 
ATOM     22  N   LIG    1        6.476   3.950   2.511  0.00  0.00    -0.191 NA
ENDBRANCH  13  21
ENDBRANCH   3   7
BRANCH   2  23
ATOM     23  C   LIG    1       -0.101  -2.581   0.715  0.00  0.00    +0.421 C 
ATOM     24  F   LIG    1       -0.944  -3.405   1.341  0.00  0.00    -0.166 F 
ATOM     25  F   LIG    1        0.977  -2.452   1.489  0.00  0.00    -0.166 F 
ATOM     26  F   LIG    1        0.254  -3.152  -0.435  0.00  0.00    -0.166 F 
ENDBRANCH   2  23
BRANCH   5  27
ATOM     27  N   LIG    1       -2.643   2.407  -0.175  0.00  0.00    -0.312 N 
ATOM     28  H   LIG    1       -3.646   2.420  -0.056  0.00  0.00    +0.149 HD
BRANCH  27  29
ATOM     29  C   LIG    1       -1.951   3.687  -0.326  0.00  0.00    +0.056 C 
ATOM     30  C   LIG    1       -2.939   4.712  -0.912  0.00  0.00    +0.019 C 
ATOM     31  C   LIG    1       -2.236   6.076  -1.085  0.00  0.00    -0.011 C 
ATOM     32  C   LIG    1       -1.583   6.636   0.215  0.00  0.00    -0.074 C 
ATOM     33  C   LIG    1       -0.580   7.756  -0.130  0.00  0.00    -0.010 C 
ATOM     34  C   LIG    1       -2.636   7.056   1.268  0.00  0.00    -0.010 C 
ATOM     35  N   LIG    1       -0.718   5.523   0.867  0.00  0.00    +0.384 N 
ATOM     36  H   LIG    1        0.109   5.393   0.302  0.00  0.00    -0.085 HD
ATOM     37  H   LIG    1       -0.390   5.851   1.764  0.00  0.00    -0.085 HD
ATOM     38  C   LIG    1       -1.420   4.161   1.045  0.00  0.00    -0.059 C 
ENDBRANCH  27  29
ENDBRANCH   5  27
TORSDOF 6
