REMARK  Name = DB17418
REMARK                            x       y       z     vdW  Elec       q    Type
REMARK                         _______ _______ _______ _____ _____    ______ ____
ROOT
ATOM      1  C   LIG    1        3.682  -1.276   0.336  0.00  0.00    -0.046 C 
ATOM      2  C   LIG    1        4.523  -0.338  -0.179  0.00  0.00    +0.071 C 
ATOM      3  C   LIG    1        4.129  -2.452   1.201  0.00  0.00    +0.044 C 
ENDROOT
BRANCH   2   4
ATOM      4  C   LIG    1        5.969  -0.316  -0.080  0.00  0.00    +0.241 C 
ATOM      5  N   LIG    1        6.469   0.928  -0.246  0.00  0.00    -0.282 N 
ATOM      6  H   LIG    1        5.804   1.686  -0.284  0.00  0.00    +0.155 HD
ATOM      7  O   LIG    1        6.656  -1.324   0.100  0.00  0.00    -0.270 OA
BRANCH   5   8
ATOM      8  C   LIG    1        7.819   1.319  -0.238  0.00  0.00    +0.034 A 
ATOM      9  C   LIG    1        8.851   0.525  -0.748  0.00  0.00    +0.024 A 
ATOM     10  C   LIG    1       10.163   0.991  -0.727  0.00  0.00    +0.017 A 
ATOM     11  C   LIG    1       10.479   2.262  -0.209  0.00  0.00    +0.059 A 
ATOM     12  C   LIG    1        9.420   3.049   0.284  0.00  0.00    +0.017 A 
ATOM     13  C   LIG    1        8.107   2.586   0.265  0.00  0.00    +0.024 A 
BRANCH  11  14
ATOM     14  C   LIG    1       11.909   2.768  -0.187  0.00  0.00    +0.337 C 
ATOM     15  O   LIG    1       12.817   2.035  -0.646  0.00  0.00    -0.245 OA
BRANCH  14  16
ATOM     16  O   LIG    1       12.141   3.905   0.288  0.00  0.00    -0.477 OA
ATOM     17  H   LIG    1       13.018   4.234   0.310  0.00  0.00    +0.295 HD
ENDBRANCH  14  16
ENDBRANCH  11  14
ENDBRANCH   5   8
ENDBRANCH   2   4
BRANCH   1  19
ATOM     18  C   LIG    1        1.561   0.029   0.167  0.00  0.00    +0.001 C 
ATOM     19  C   LIG    1        2.245  -1.133   0.126  0.00  0.00    +0.003 C 
BRANCH  18  22
ATOM     20  C   LIG    1       -0.041   2.635   0.000  0.00  0.00    +0.044 C 
ATOM     21  C   LIG    1       -0.626   1.232  -0.113  0.00  0.00    -0.050 C 
ATOM     22  C   LIG    1        0.124   0.105  -0.048  0.00  0.00    +0.003 C 
BRANCH  21  23
ATOM     23  C   LIG    1       -2.066   1.129  -0.308  0.00  0.00    +0.003 C 
ATOM     24  C   LIG    1       -2.876   0.270   0.346  0.00  0.00    +0.004 C 
BRANCH  24  25
ATOM     25  C   LIG    1       -4.323   0.166   0.141  0.00  0.00    -0.043 C 
ATOM     26  C   LIG    1       -4.869  -1.246  -0.227  0.00  0.00    -0.010 C 
ATOM     27  C   LIG    1       -4.811  -2.122   1.049  0.00  0.00    +0.016 C 
ATOM     28  C   LIG    1       -4.031  -1.838  -1.390  0.00  0.00    +0.016 C 
ATOM     29  C   LIG    1       -6.344  -1.172  -0.726  0.00  0.00    +0.011 C 
ATOM     30  C   LIG    1       -7.214  -0.226   0.100  0.00  0.00    +0.005 C 
ATOM     31  C   LIG    1       -6.654   1.198   0.029  0.00  0.00    +0.031 C 
ATOM     32  C   LIG    1       -5.146   1.251   0.286  0.00  0.00    -0.069 C 
ATOM     33  C   LIG    1       -4.666   2.648   0.681  0.00  0.00    +0.039 C 
ENDBRANCH  24  25
ENDBRANCH  21  23
ENDBRANCH  18  22
ENDBRANCH   1  19
TORSDOF 8
