REMARK  Name = DB17061
REMARK                            x       y       z     vdW  Elec       q    Type
REMARK                         _______ _______ _______ _____ _____    ______ ____
ROOT
ATOM      1  C   LIG    1        1.402   0.062  -0.039  0.00  0.00    +0.083 A 
ATOM      2  C   LIG    1        2.278  -1.061  -0.157  0.00  0.00    -0.012 A 
ATOM      3  C   LIG    1        1.926  -2.539  -0.133  0.00  0.00    +0.047 C 
ATOM      4  C   LIG    1        3.571  -0.555  -0.317  0.00  0.00    +0.044 A 
ATOM      5  N   LIG    1        3.484   0.808  -0.262  0.00  0.00    -0.358 N 
ATOM      6  H   LIG    1        4.273   1.433  -0.342  0.00  0.00    +0.166 HD
ATOM      7  C   LIG    1        2.190   1.217  -0.112  0.00  0.00    +0.028 A 
ATOM      8  C   LIG    1        1.865   2.696  -0.049  0.00  0.00    +0.064 C 
ENDROOT
BRANCH   4   9
ATOM      9  C   LIG    1        4.859  -1.231  -0.448  0.00  0.00    +0.039 C 
ATOM     10  C   LIG    1        5.992  -0.945  -1.136  0.00  0.00    +0.048 C 
ATOM     11  C   LIG    1        7.238  -1.704  -1.177  0.00  0.00    +0.008 A 
ATOM     12  C   LIG    1        7.652  -2.887  -0.557  0.00  0.00    +0.010 A 
ATOM     13  C   LIG    1        8.942  -3.371  -0.798  0.00  0.00    +0.001 A 
ATOM     14  C   LIG    1        9.807  -2.676  -1.650  0.00  0.00    +0.002 A 
ATOM     15  C   LIG    1        9.388  -1.494  -2.266  0.00  0.00    +0.024 A 
ATOM     16  C   LIG    1        8.098  -1.030  -2.013  0.00  0.00    +0.042 A 
ATOM     17  N   LIG    1        7.450   0.084  -2.491  0.00  0.00    -0.281 N 
ATOM     18  H   LIG    1        7.860   0.741  -3.139  0.00  0.00    +0.155 HD
ATOM     19  C   LIG    1        6.192   0.197  -2.024  0.00  0.00    +0.249 C 
ATOM     20  O   LIG    1        5.416   1.098  -2.333  0.00  0.00    -0.270 OA
ENDBRANCH   4   9
BRANCH   1  21
ATOM     21  C   LIG    1       -0.062   0.071   0.137  0.00  0.00    +0.341 C 
ATOM     22  O   LIG    1       -0.726   1.104   0.248  0.00  0.00    -0.245 OA
BRANCH  21  23
ATOM     23  O   LIG    1       -0.582  -1.175   0.163  0.00  0.00    -0.461 OA
BRANCH  23  25
ATOM     24  C   LIG    1       -2.268  -2.889   0.286  0.00  0.00    +0.048 C 
ATOM     25  C   LIG    1       -1.979  -1.385   0.321  0.00  0.00    +0.229 C 
ENDBRANCH  23  25
ENDBRANCH  21  23
ENDBRANCH   1  21
TORSDOF 4
