REMARK  Name = DB17135
REMARK                            x       y       z     vdW  Elec       q    Type
REMARK                         _______ _______ _______ _____ _____    ______ ____
ROOT
ATOM      1  C   LIG    1       -0.049  -0.028  -0.061  0.00  0.00    +0.373 C 
ATOM      2  O   LIG    1       -0.722   0.946   0.350  0.00  0.00    -0.242 OA
ENDROOT
BRANCH   1   3
ATOM      3  O   LIG    1       -0.470  -1.048  -0.657  0.00  0.00    -0.475 OA
ATOM      4  H   LIG    1       -0.862  -1.747  -0.171  0.00  0.00    +0.295 HD
ENDBRANCH   1   3
BRANCH   1   5
ATOM      5  C   LIG    1        1.442   0.049   0.185  0.00  0.00    +0.249 C 
ATOM      6  O   LIG    1        2.048  -0.965   0.543  0.00  0.00    -0.284 OA
BRANCH   5   7
ATOM      7  C   LIG    1        2.199   1.363  -0.043  0.00  0.00    +0.166 C 
ATOM      8 BR   LIG    1        2.217   1.817  -1.983  0.00  0.00    -0.083 Br
ENDBRANCH   5   7
ENDBRANCH   1   5
TORSDOF 3
