REMARK  Name = DB17410
REMARK                            x       y       z     vdW  Elec       q    Type
REMARK                         _______ _______ _______ _____ _____    ______ ____
ROOT
ATOM      1  CA  LIG    1        1.803   0.336   0.185  0.00  0.00    +0.163 C 
ENDROOT
BRANCH   1   3
ATOM      2  C   LIG    1       -0.502   1.169  -0.379  0.00  0.00    +0.234 C 
ATOM      3  N   LIG    1        0.335   0.286   0.200  0.00  0.00    -0.302 N 
ATOM      4  H   LIG    1       -0.062  -0.520   0.662  0.00  0.00    +0.150 HD
ATOM      5  O   LIG    1       -0.139   2.188  -0.970  0.00  0.00    -0.274 OA
BRANCH   2   6
ATOM      6  CA  LIG    1       -2.004   0.820  -0.320  0.00  0.00    +0.161 C 
BRANCH   6  11
ATOM      7  C   LIG    1       -1.046   4.482   1.633  0.00  0.00    +0.028 C 
ATOM      8  C   LIG    1       -2.207   4.191   2.619  0.00  0.00    +0.075 C 
ATOM      9  N   LIG    1       -3.189   3.124   2.243  0.00  0.00    -0.280 N 
ATOM     10  C   LIG    1       -2.623   1.973   1.812  0.00  0.00    +0.303 C 
ATOM     11  N   LIG    1       -2.706   1.833   0.476  0.00  0.00    -0.288 N 
ATOM     12  H   LIG    1       -3.236   2.509  -0.053  0.00  0.00    +0.151 HD
ATOM     13  O   LIG    1       -2.074   1.163   2.562  0.00  0.00    -0.253 OA
ATOM     14  C   LIG    1       -4.470   2.950   2.997  0.00  0.00    +0.075 C 
ATOM     15  C   LIG    1       -5.546   2.026   2.373  0.00  0.00    +0.028 C 
ATOM     16  C   LIG    1       -5.090   4.317   3.366  0.00  0.00    +0.022 C 
ATOM     17  C   LIG    1       -4.087   5.294   3.970  0.00  0.00    +0.004 C 
ATOM     18  C   LIG    1       -2.928   5.504   3.001  0.00  0.00    +0.022 C 
ENDBRANCH   6  11
BRANCH   6  19
ATOM     19  C   LIG    1       -2.589   0.702  -1.760  0.00  0.00    +0.038 C 
BRANCH  19  20
ATOM     20  C   LIG    1       -3.917  -0.098  -1.944  0.00  0.00    -0.036 C 
ATOM     21  C   LIG    1       -5.068   0.488  -1.095  0.00  0.00    +0.010 C 
ATOM     22  C   LIG    1       -4.322  -0.021  -3.434  0.00  0.00    +0.010 C 
ATOM     23  C   LIG    1       -3.714  -1.587  -1.573  0.00  0.00    +0.010 C 
ENDBRANCH  19  20
ENDBRANCH   6  19
ENDBRANCH   2   6
ENDBRANCH   1   3
BRANCH   1  24
ATOM     24  C   LIG    1        2.353   0.202  -1.258  0.00  0.00    +0.234 C 
ATOM     25  N   LIG    1        1.742  -0.717  -2.028  0.00  0.00    -0.301 N 
ATOM     26  H   LIG    1        1.021  -1.291  -1.614  0.00  0.00    +0.150 HD
ATOM     27  O   LIG    1        3.273   0.921  -1.646  0.00  0.00    -0.274 OA
BRANCH  25  28
ATOM     28  CA  LIG    1        1.983  -0.970  -3.454  0.00  0.00    +0.182 C 
BRANCH  28  29
ATOM     29  C   LIG    1        1.204  -2.288  -3.811  0.00  0.00    +0.325 C 
ATOM     30  OXT LIG    1        1.932  -3.245  -4.163  0.00  0.00    -0.249 OA
BRANCH  29  31
ATOM     31  O   LIG    1       -0.048  -2.236  -3.717  0.00  0.00    -0.479 OA
ATOM     32  H   LIG    1       -0.564  -2.992  -3.917  0.00  0.00    +0.295 HD
ENDBRANCH  29  31
ENDBRANCH  28  29
BRANCH  28  33
ATOM     33  C   LIG    1        1.579   0.242  -4.350  0.00  0.00    +0.034 C 
BRANCH  33  34
ATOM     34  C   LIG    1        1.804   0.036  -5.863  0.00  0.00    +0.002 C 
BRANCH  34  35
ATOM     35  C   LIG    1        1.471   1.289  -6.691  0.00  0.00    -0.003 C 
ATOM     36  C   LIG    1        1.695   1.088  -8.196  0.00  0.00    +0.004 C 
ENDBRANCH  34  35
ENDBRANCH  33  34
ENDBRANCH  28  33
ENDBRANCH  25  28
ENDBRANCH   1  24
BRANCH   1  37
ATOM     37  C   LIG    1        2.355   1.556   0.979  0.00  0.00    +0.069 C 
BRANCH  37  38
ATOM     38  C   LIG    1        3.848   1.506   1.262  0.00  0.00    -0.019 A 
ATOM     39  C   LIG    1        4.793   2.567   1.086  0.00  0.00    +0.004 A 
ATOM     40  C   LIG    1        4.666   3.891   0.633  0.00  0.00    +0.010 A 
ATOM     41  C   LIG    1        5.793   4.702   0.570  0.00  0.00    +0.001 A 
ATOM     42  C   LIG    1        7.040   4.221   0.947  0.00  0.00    +0.002 A 
ATOM     43  C   LIG    1        7.220   2.916   1.402  0.00  0.00    +0.027 A 
ATOM     44  C   LIG    1        6.088   2.081   1.472  0.00  0.00    +0.060 A 
ATOM     45  N   LIG    1        5.931   0.748   1.875  0.00  0.00    -0.253 N 
ATOM     46  C   LIG    1        6.851  -0.215   2.343  0.00  0.00    +0.420 C 
ATOM     47  O   LIG    1        6.533  -1.364   2.667  0.00  0.00    -0.223 OA
ATOM     48  C   LIG    1        4.588   0.448   1.741  0.00  0.00    +0.102 A 
BRANCH  46  49
ATOM     49  O   LIG    1        8.101   0.290   2.386  0.00  0.00    -0.451 OA
ATOM     50  C   LIG    1        9.190  -0.509   2.827  0.00  0.00    +0.282 C 
ENDBRANCH  46  49
ENDBRANCH  37  38
ENDBRANCH   1  37
TORSDOF 15
