REMARK  Name = DB17536
REMARK                            x       y       z     vdW  Elec       q    Type
REMARK                         _______ _______ _______ _____ _____    ______ ____
ROOT
ATOM      1  N   LIG    1        1.387  -0.296   0.134  0.00  0.00    -0.301 N 
ATOM      2  H   LIG    1        1.790  -0.346   1.058  0.00  0.00    +0.150 HD
ATOM      3  C   LIG    1        2.215  -0.202  -0.923  0.00  0.00    +0.234 C 
ATOM      4  O   LIG    1        1.842  -0.124  -2.094  0.00  0.00    -0.274 OA
ENDROOT
BRANCH   1   5
ATOM      5  C   LIG    1       -0.085  -0.259   0.096  0.00  0.00    +0.182 C 
BRANCH   5   6
ATOM      6  C   LIG    1       -0.529   1.167  -0.220  0.00  0.00    +0.328 C 
ATOM      7  O   LIG    1       -1.293   1.426  -1.151  0.00  0.00    -0.249 OA
BRANCH   6   8
ATOM      8  O   LIG    1       -0.021   2.080   0.654  0.00  0.00    -0.461 OA
BRANCH   8  10
ATOM      9  C   LIG    1        0.765   4.243   1.301  0.00  0.00    +0.052 C 
ATOM     10  C   LIG    1       -0.340   3.468   0.568  0.00  0.00    +0.170 C 
ATOM     11  C   LIG    1       -1.733   3.748   1.167  0.00  0.00    +0.052 C 
ENDBRANCH   8  10
ENDBRANCH   6   8
ENDBRANCH   5   6
BRANCH   5  12
ATOM     12  C   LIG    1       -0.691  -0.760   1.437  0.00  0.00    +0.041 C 
BRANCH  12  13
ATOM     13  C   LIG    1       -2.239  -0.829   1.527  0.00  0.00    +0.084 C 
BRANCH  13  14
ATOM     14  C   LIG    1       -2.919  -1.626   0.405  0.00  0.00    +0.188 C 
ATOM     15  O   LIG    1       -3.557  -1.031  -0.465  0.00  0.00    -0.290 OA
BRANCH  14  16
ATOM     16  C   LIG    1       -2.757  -3.067   0.458  0.00  0.00    +0.249 C 
ATOM     17  N   LIG    1       -3.293  -3.813  -0.479  0.00  0.00    -0.312 NA
ATOM     18  N   LIG    1       -3.748  -4.483  -1.281  0.00  0.00    -0.151 NA
ATOM     19  H   LIG    1       -4.172  -5.335  -1.029  0.00  0.00    +0.226 HD
ENDBRANCH  14  16
ENDBRANCH  13  14
ENDBRANCH  12  13
ENDBRANCH   5  12
ENDBRANCH   1   5
BRANCH   3  20
ATOM     20  C   LIG    1        3.715  -0.151  -0.593  0.00  0.00    +0.163 C 
BRANCH  20  21
ATOM     21  N   LIG    1        4.515  -0.899  -1.565  0.00  0.00    -0.304 N 
ATOM     22  H   LIG    1        5.047  -0.338  -2.215  0.00  0.00    +0.149 HD
ATOM     23  C   LIG    1        4.573  -2.238  -1.653  0.00  0.00    +0.211 C 
ATOM     24  O   LIG    1        3.963  -2.998  -0.902  0.00  0.00    -0.276 OA
ATOM     25  C   LIG    1        5.462  -2.809  -2.753  0.00  0.00    +0.109 C 
ENDBRANCH  20  21
BRANCH  20  26
ATOM     26  C   LIG    1        4.202   1.312  -0.544  0.00  0.00    +0.069 C 
BRANCH  26  27
ATOM     27  C   LIG    1        5.659   1.508  -0.238  0.00  0.00    -0.020 A 
ATOM     28  C   LIG    1        6.794   1.503  -1.159  0.00  0.00    +0.003 A 
ATOM     29  C   LIG    1        6.937   1.372  -2.561  0.00  0.00    +0.010 A 
ATOM     30  C   LIG    1        8.207   1.407  -3.174  0.00  0.00    +0.001 A 
ATOM     31  C   LIG    1        9.369   1.577  -2.396  0.00  0.00    +0.002 A 
ATOM     32  C   LIG    1        9.264   1.710  -1.000  0.00  0.00    +0.026 A 
ATOM     33  C   LIG    1        7.993   1.670  -0.400  0.00  0.00    +0.047 A 
ATOM     34  N   LIG    1        7.560   1.755   0.907  0.00  0.00    -0.360 N 
ATOM     35  H   LIG    1        8.152   1.871   1.717  0.00  0.00    +0.165 HD
ATOM     36  C   LIG    1        6.188   1.646   0.999  0.00  0.00    +0.087 A 
ENDBRANCH  26  27
ENDBRANCH  20  26
ENDBRANCH   3  20
TORSDOF 12
