REMARK  Name = DB17734
REMARK                            x       y       z     vdW  Elec       q    Type
REMARK                         _______ _______ _______ _____ _____    ______ ____
ROOT
ATOM      1  C   LIG    1        1.049   0.100  -0.321  0.00  0.00    +0.176 C 
ENDROOT
BRANCH   1   2
ATOM      2  C   LIG    1        1.905   0.774   0.741  0.00  0.00    +0.022 A 
ATOM      3  C   LIG    1        3.141   1.351   0.392  0.00  0.00    +0.127 A 
ATOM      4  C   LIG    1        3.899   1.996   1.386  0.00  0.00    +0.066 A 
ATOM      5  C   LIG    1        3.440   2.068   2.700  0.00  0.00    +0.044 A 
ATOM      6 CL   LIG    1        4.380   2.876   3.901  0.00  0.00    -0.083 Cl
ATOM      7  C   LIG    1        2.223   1.489   3.044  0.00  0.00    +0.020 A 
ATOM      8  C   LIG    1        1.463   0.845   2.072  0.00  0.00    +0.011 A 
BRANCH   3   9
ATOM      9  O   LIG    1        3.546   1.252  -0.928  0.00  0.00    -0.495 OA
ATOM     10  C   LIG    1        4.798   1.801  -1.324  0.00  0.00    +0.277 C 
ENDBRANCH   3   9
ENDBRANCH   1   2
BRANCH   1  11
ATOM     11  N   LIG    1       -0.384   0.338  -0.268  0.00  0.00    -0.330 N 
ATOM     12  H   LIG    1       -0.944  -0.391  -0.687  0.00  0.00    +0.147 HD
BRANCH  11  17
ATOM     13  C   LIG    1       -3.252   2.590   0.364  0.00  0.00    +0.124 A 
ATOM     14  C   LIG    1       -2.600   3.825   0.516  0.00  0.00    +0.072 A 
ATOM     15  C   LIG    1       -1.212   3.913   0.385  0.00  0.00    +0.093 A 
ATOM     16  C   LIG    1       -0.467   2.767   0.110  0.00  0.00    +0.050 A 
ATOM     17  C   LIG    1       -1.095   1.524  -0.019  0.00  0.00    +0.033 A 
ATOM     18  C   LIG    1       -2.486   1.452   0.095  0.00  0.00    +0.068 A 
BRANCH  15  19
ATOM     19  S   LIG    1       -0.361   5.476   0.580  0.00  0.00    -0.006 S 
ATOM     20  O   LIG    1       -1.373   6.530   0.711  0.00  0.00    -0.170 OA
ATOM     21  O   LIG    1        0.655   5.549  -0.477  0.00  0.00    -0.170 OA
ATOM     22  C   LIG    1        0.518   5.281   2.238  0.00  0.00    +0.200 C 
ENDBRANCH  15  19
BRANCH  13  24
ATOM     23  C   LIG    1       -5.449   3.532   0.738  0.00  0.00    +0.277 C 
ATOM     24  O   LIG    1       -4.618   2.408   0.468  0.00  0.00    -0.495 OA
ENDBRANCH  13  24
ENDBRANCH  11  17
ENDBRANCH   1  11
BRANCH   1  25
ATOM     25  C   LIG    1        1.258  -1.409  -0.226  0.00  0.00    +0.190 C 
ATOM     26  O   LIG    1        0.796  -2.047   0.724  0.00  0.00    -0.290 OA
BRANCH  25  27
ATOM     27  C   LIG    1        2.036  -2.090  -1.268  0.00  0.00    +0.045 A 
ATOM     28  C   LIG    1        2.398  -3.491  -1.304  0.00  0.00    +0.014 A 
ATOM     29  C   LIG    1        2.170  -4.595  -0.461  0.00  0.00    +0.056 A 
ATOM     30  C   LIG    1        2.684  -5.856  -0.800  0.00  0.00    +0.131 A 
ATOM     31  C   LIG    1        3.418  -6.008  -1.975  0.00  0.00    +0.048 A 
ATOM     32  C   LIG    1        3.674  -4.952  -2.846  0.00  0.00    +0.030 A 
ATOM     33  C   LIG    1        3.159  -3.702  -2.496  0.00  0.00    +0.047 A 
ATOM     34  N   LIG    1        3.243  -2.487  -3.137  0.00  0.00    -0.360 N 
ATOM     35  H   LIG    1        3.711  -2.281  -4.008  0.00  0.00    +0.165 HD
ATOM     36  C   LIG    1        2.581  -1.530  -2.414  0.00  0.00    +0.095 A 
BRANCH  30  37
ATOM     37  O   LIG    1        2.517  -7.000  -0.039  0.00  0.00    -0.406 OA
BRANCH  37  38
ATOM     38  C   LIG    1        1.781  -6.963   1.184  0.00  0.00    +0.575 C 
ATOM     39  F   LIG    1        0.507  -6.620   0.983  0.00  0.00    -0.133 F 
ATOM     40  F   LIG    1        2.353  -6.158   2.081  0.00  0.00    -0.133 F 
ATOM     41  F   LIG    1        1.790  -8.196   1.688  0.00  0.00    -0.133 F 
ENDBRANCH  37  38
ENDBRANCH  30  37
ENDBRANCH  25  27
ENDBRANCH   1  25
TORSDOF 10
