REMARK  Name = DB17198
REMARK                            x       y       z     vdW  Elec       q    Type
REMARK                         _______ _______ _______ _____ _____    ______ ____
ROOT
ATOM      1  O   LIG    1        1.266  -0.250  -0.563  0.00  0.00    -0.456 OA
ENDROOT
BRANCH   1   6
ATOM      2  N   LIG    1       -4.115   0.729   0.216  0.00  0.00    -0.344 N 
ATOM      3  C   LIG    1       -2.825   0.297  -0.048  0.00  0.00    +0.050 A 
ATOM      4  C   LIG    1       -2.338  -0.940  -0.492  0.00  0.00    +0.030 A 
ATOM      5  C   LIG    1       -0.958  -1.067  -0.647  0.00  0.00    +0.048 A 
ATOM      6  C   LIG    1       -0.081  -0.015  -0.397  0.00  0.00    +0.129 A 
ATOM      7  C   LIG    1       -0.574   1.215   0.053  0.00  0.00    +0.056 A 
ATOM      8  C   LIG    1       -1.955   1.387   0.232  0.00  0.00    +0.006 A 
ATOM      9  C   LIG    1       -2.762   2.486   0.675  0.00  0.00    -0.022 A 
ATOM     10  C   LIG    1       -2.230   3.840   1.096  0.00  0.00    +0.046 C 
ATOM     11  C   LIG    1       -4.080   2.046   0.652  0.00  0.00    +0.020 A 
ATOM     12  C   LIG    1       -5.350   2.790   1.028  0.00  0.00    +0.064 C 
BRANCH   2  13
ATOM     13  C   LIG    1       -5.310  -0.123   0.121  0.00  0.00    +0.123 C 
BRANCH  13  14
ATOM     14  C   LIG    1       -5.326  -1.201   1.228  0.00  0.00    +0.037 C 
BRANCH  14  15
ATOM     15  C   LIG    1       -5.277  -0.649   2.675  0.00  0.00    +0.086 C 
BRANCH  15  21
ATOM     16  C   LIG    1       -1.810   1.340   5.420  0.00  0.00    -0.096 C 
ATOM     17  N   LIG    1       -2.557   0.028   5.116  0.00  0.00    +0.379 N 
ATOM     18  H   LIG    1       -2.202  -0.708   5.711  0.00  0.00    -0.082 HD
ATOM     19  C   LIG    1       -4.070   0.183   5.395  0.00  0.00    -0.064 C 
ATOM     20  C   LIG    1       -4.788  -1.141   5.023  0.00  0.00    +0.066 C 
ATOM     21  N   LIG    1       -4.575  -1.528   3.620  0.00  0.00    -0.306 NA
ATOM     22  C   LIG    1       -3.131  -1.691   3.377  0.00  0.00    +0.066 C 
ATOM     23  C   LIG    1       -2.332  -0.393   3.646  0.00  0.00    -0.064 C 
ENDBRANCH  15  21
ENDBRANCH  14  15
ENDBRANCH  13  14
ENDBRANCH   2  13
ENDBRANCH   1   6
BRANCH   1  24
ATOM     24  C   LIG    1        2.043   0.707  -1.171  0.00  0.00    +0.129 A 
ATOM     25  C   LIG    1        2.141   0.750  -2.563  0.00  0.00    +0.046 A 
ATOM     26  C   LIG    1        2.947   1.707  -3.179  0.00  0.00    +0.004 A 
ATOM     27  C   LIG    1        3.650   2.632  -2.405  0.00  0.00    +0.013 A 
ATOM     28  C   LIG    1        3.543   2.613  -1.009  0.00  0.00    +0.040 A 
ATOM     29  C   LIG    1        2.755   1.627  -0.398  0.00  0.00    +0.059 A 
BRANCH  28  30
ATOM     30  C   LIG    1        4.302   3.616  -0.177  0.00  0.00    +0.247 C 
ATOM     31  N   LIG    1        3.619   4.374   0.728  0.00  0.00    -0.295 N 
ATOM     32  C   LIG    1        2.152   4.556   0.682  0.00  0.00    +0.123 C 
ATOM     33  C   LIG    1        1.596   4.489   2.121  0.00  0.00    +0.103 C 
ATOM     34  N   LIG    1        2.269   5.446   3.009  0.00  0.00    -0.299 NA
ATOM     35  C   LIG    1        3.712   5.183   3.045  0.00  0.00    +0.103 C 
ATOM     36  C   LIG    1        4.359   5.267   1.642  0.00  0.00    +0.123 C 
ATOM     37  O   LIG    1        5.523   3.689  -0.332  0.00  0.00    -0.270 OA
BRANCH  34  38
ATOM     38  C   LIG    1        1.719   5.405   4.369  0.00  0.00    +0.089 C 
BRANCH  38  39
ATOM     39  C   LIG    1        0.331   6.074   4.462  0.00  0.00    +0.050 C 
BRANCH  39  40
ATOM     40  C   LIG    1       -0.231   6.027   5.874  0.00  0.00    -0.046 A 
ATOM     41  C   LIG    1       -0.108   7.134   6.719  0.00  0.00    +0.006 A 
ATOM     42  C   LIG    1       -0.624   7.081   8.011  0.00  0.00    +0.038 A 
ATOM     43  C   LIG    1       -1.260   5.923   8.456  0.00  0.00    +0.123 A 
ATOM     44  F   LIG    1       -1.760   5.872   9.711  0.00  0.00    -0.205 F 
ATOM     45  C   LIG    1       -1.385   4.817   7.618  0.00  0.00    +0.038 A 
ATOM     46  C   LIG    1       -0.870   4.869   6.326  0.00  0.00    +0.006 A 
ENDBRANCH  39  40
ENDBRANCH  38  39
ENDBRANCH  34  38
ENDBRANCH  28  30
ENDBRANCH   1  24
TORSDOF 10
