REMARK  Name = DB17306
REMARK                            x       y       z     vdW  Elec       q    Type
REMARK                         _______ _______ _______ _____ _____    ______ ____
ROOT
ATOM      1  C   LIG    1        1.454  -0.011  -0.080  0.00  0.00    +0.312 A 
ATOM      2  O   LIG    1        2.098   0.965  -0.768  0.00  0.00    -0.405 OA
ATOM      3  C   LIG    1        3.360   0.474  -0.877  0.00  0.00    +0.250 A 
ATOM      4  N   LIG    1        3.480  -0.712  -0.327  0.00  0.00    -0.106 NA
ATOM      5  N   LIG    1        2.224  -1.037   0.178  0.00  0.00    -0.092 NA
ENDROOT
BRANCH   3   6
ATOM      6  C   LIG    1        4.403   1.289  -1.569  0.00  0.00    +0.039 A 
ATOM      7  C   LIG    1        4.083   2.543  -2.096  0.00  0.00    +0.014 A 
ATOM      8  C   LIG    1        5.055   3.305  -2.740  0.00  0.00    +0.014 A 
ATOM      9  C   LIG    1        6.367   2.824  -2.869  0.00  0.00    +0.039 A 
ATOM     10  C   LIG    1        6.682   1.568  -2.334  0.00  0.00    +0.014 A 
ATOM     11  C   LIG    1        5.709   0.807  -1.692  0.00  0.00    +0.014 A 
BRANCH   9  12
ATOM     12  C   LIG    1        7.443   3.636  -3.559  0.00  0.00    +0.267 C 
ATOM     13  N   LIG    1        7.014   4.579  -4.420  0.00  0.00    -0.193 N 
ATOM     14  H   LIG    1        6.065   4.801  -4.685  0.00  0.00    +0.183 HD
ATOM     15  O   LIG    1        8.636   3.408  -3.338  0.00  0.00    -0.268 OA
BRANCH  13  16
ATOM     16  O   LIG    1        7.968   5.316  -5.131  0.00  0.00    -0.295 OA
ATOM     17  H   LIG    1        7.896   4.969  -6.023  0.00  0.00    +0.241 HD
ENDBRANCH  13  16
ENDBRANCH   9  12
ENDBRANCH   3   6
BRANCH   1  18
ATOM     18  N   LIG    1        0.109   0.111   0.174  0.00  0.00    -0.268 N 
ATOM     19  H   LIG    1       -0.452  -0.727   0.223  0.00  0.00    +0.157 HD
BRANCH  18  23
ATOM     20  C   LIG    1       -2.324   3.547   0.276  0.00  0.00    +0.120 A 
ATOM     21  C   LIG    1       -0.932   3.684   0.386  0.00  0.00    +0.047 A 
ATOM     22  C   LIG    1       -0.110   2.561   0.354  0.00  0.00    +0.027 A 
ATOM     23  C   LIG    1       -0.665   1.284   0.204  0.00  0.00    +0.035 A 
ATOM     24  C   LIG    1       -2.051   1.148   0.108  0.00  0.00    +0.027 A 
ATOM     25  C   LIG    1       -2.871   2.272   0.139  0.00  0.00    +0.047 A 
BRANCH  20  27
ATOM     26  C   LIG    1       -2.719   5.929   0.437  0.00  0.00    +0.277 C 
ATOM     27  O   LIG    1       -3.216   4.602   0.296  0.00  0.00    -0.495 OA
ENDBRANCH  20  27
ENDBRANCH  18  23
ENDBRANCH   1  18
TORSDOF 6
