REMARK  Name = DB17549
REMARK                            x       y       z     vdW  Elec       q    Type
REMARK                         _______ _______ _______ _____ _____    ______ ____
ROOT
ATOM      1  N   LIG    1       -0.528   1.764  -0.025  0.00  0.00    +0.392 N 
ATOM      2  H   LIG    1        0.329   2.268   0.160  0.00  0.00    -0.080 HD
ATOM      3  C   LIG    1       -1.333   1.857   1.321  0.00  0.00    -0.046 C 
ATOM      4  C   LIG    1       -2.545   2.874   1.255  0.00  0.00    -0.011 C 
ATOM      5  C   LIG    1       -2.240   4.392   1.360  0.00  0.00    -0.001 C 
ATOM      6  C   LIG    1       -1.182   4.744   2.409  0.00  0.00    -0.000 C 
ATOM      7  C   LIG    1        0.073   3.887   2.221  0.00  0.00    -0.001 C 
ATOM      8  C   LIG    1       -0.271   2.393   2.346  0.00  0.00    -0.011 C 
ATOM      9  C   LIG    1       -1.768   0.352   1.628  0.00  0.00    +0.071 C 
ATOM     10  C   LIG    1       -2.156   0.006   3.057  0.00  0.00    -0.012 A 
ATOM     11  C   LIG    1       -1.418  -0.013   4.247  0.00  0.00    +0.008 A 
ATOM     12  C   LIG    1       -2.030  -0.388   5.444  0.00  0.00    +0.020 A 
ATOM     13  C   LIG    1       -3.376  -0.764   5.457  0.00  0.00    +0.043 A 
ATOM     14 CL   LIG    1       -4.128  -1.231   6.939  0.00  0.00    -0.083 Cl
ATOM     15  C   LIG    1       -4.109  -0.775   4.269  0.00  0.00    +0.043 A 
ATOM     16  C   LIG    1       -3.478  -0.397   3.084  0.00  0.00    +0.039 A 
ATOM     17  N   LIG    1       -3.989  -0.393   1.803  0.00  0.00    -0.284 N 
ATOM     18  H   LIG    1       -4.930  -0.680   1.574  0.00  0.00    +0.155 HD
ATOM     19  C   LIG    1       -3.090  -0.021   0.877  0.00  0.00    +0.227 C 
ATOM     20  O   LIG    1       -3.288   0.034  -0.336  0.00  0.00    -0.275 OA
ATOM     21  C   LIG    1       -0.566  -0.462   1.074  0.00  0.00    +0.035 C 
ATOM     22  C   LIG    1       -0.107   0.276  -0.209  0.00  0.00    +0.029 C 
ENDROOT
BRANCH  21  23
ATOM     23  C   LIG    1       -0.695  -2.001   0.987  0.00  0.00    -0.007 A 
ATOM     24  C   LIG    1       -0.184  -2.822   2.009  0.00  0.00    +0.145 A 
ATOM     25  F   LIG    1        0.418  -2.276   3.092  0.00  0.00    -0.204 F 
ATOM     26  C   LIG    1       -0.285  -4.213   1.916  0.00  0.00    +0.076 A 
ATOM     27 CL   LIG    1        0.345  -5.223   3.168  0.00  0.00    -0.081 Cl
ATOM     28  C   LIG    1       -0.893  -4.798   0.806  0.00  0.00    +0.023 A 
ATOM     29  C   LIG    1       -1.402  -3.996  -0.211  0.00  0.00    +0.002 A 
ATOM     30  C   LIG    1       -1.302  -2.609  -0.122  0.00  0.00    +0.007 A 
ENDBRANCH  21  23
BRANCH  22  31
ATOM     31  C   LIG    1        1.420   0.166  -0.462  0.00  0.00    +0.201 C 
ATOM     32  N   LIG    1        1.889  -1.091  -0.582  0.00  0.00    -0.311 N 
ATOM     33  H   LIG    1        1.214  -1.838  -0.509  0.00  0.00    +0.149 HD
ATOM     34  O   LIG    1        2.137   1.166  -0.544  0.00  0.00    -0.278 OA
BRANCH  32  35
ATOM     35  C   LIG    1        3.270  -1.542  -0.784  0.00  0.00    +0.035 C 
ATOM     36  C   LIG    1        3.900  -1.031  -2.120  0.00  0.00    +0.027 C 
ATOM     37  C   LIG    1        5.342  -1.571  -2.331  0.00  0.00    +0.020 C 
ATOM     38  C   LIG    1        5.772  -2.500  -1.145  0.00  0.00    +0.068 C 
ATOM     39  C   LIG    1        5.676  -1.662   0.170  0.00  0.00    +0.020 C 
ATOM     40  C   LIG    1        4.734  -3.662  -1.054  0.00  0.00    +0.020 C 
ATOM     41  C   LIG    1        4.231  -1.125   0.378  0.00  0.00    +0.027 C 
ATOM     42  C   LIG    1        3.300  -3.100  -0.847  0.00  0.00    +0.027 C 
BRANCH  38  43
ATOM     43  C   LIG    1        7.220  -3.088  -1.307  0.00  0.00    +0.311 C 
ATOM     44  O   LIG    1        7.893  -2.805  -2.326  0.00  0.00    -0.250 OA
BRANCH  43  45
ATOM     45  O   LIG    1        7.658  -3.834  -0.398  0.00  0.00    -0.480 OA
ATOM     46  H   LIG    1        8.518  -4.200  -0.465  0.00  0.00    +0.295 HD
ENDBRANCH  43  45
ENDBRANCH  38  43
ENDBRANCH  32  35
ENDBRANCH  22  31
BRANCH   1  48
ATOM     47  C   LIG    1       -0.103   2.386  -2.483  0.00  0.00    -0.017 C 
ATOM     48  C   LIG    1       -1.110   2.400  -1.320  0.00  0.00    -0.080 C 
ENDBRANCH   1  48
TORSDOF 6
