REMARK  Name = DB17832
REMARK                            x       y       z     vdW  Elec       q    Type
REMARK                         _______ _______ _______ _____ _____    ______ ____
ROOT
ATOM      1  C   LIG    1        1.341  -0.186  -0.437  0.00  0.00    +0.267 C 
ATOM      2  N   LIG    1        2.003   0.794  -1.130  0.00  0.00    -0.296 N 
ATOM      3  C   LIG    1        1.414   1.593  -2.224  0.00  0.00    +0.109 C 
ATOM      4  C   LIG    1        1.543   0.752  -3.514  0.00  0.00    +0.027 C 
ATOM      5  C   LIG    1        3.015   0.341  -3.791  0.00  0.00    +0.023 C 
ATOM      6  C   LIG    1        3.752  -0.175  -2.521  0.00  0.00    +0.027 C 
ATOM      7  C   LIG    1        3.469   0.703  -1.275  0.00  0.00    +0.109 C 
ATOM      8  O   LIG    1        1.939  -1.120   0.103  0.00  0.00    -0.268 OA
ENDROOT
BRANCH   1  17
ATOM      9  C   LIG    1       -5.010  -3.302  -1.560  0.00  0.00    +0.109 C 
ATOM     10  C   LIG    1       -3.687  -3.733  -0.918  0.00  0.00    +0.213 C 
ATOM     11  N   LIG    1       -3.163  -2.985   0.089  0.00  0.00    -0.296 N 
ATOM     12  C   LIG    1       -3.493  -1.554   0.283  0.00  0.00    +0.162 C 
ATOM     13  C   LIG    1       -2.227  -0.756   0.010  0.00  0.00    +0.057 A 
ATOM     14  N   LIG    1       -2.101   0.593  -0.131  0.00  0.00    -0.279 N 
ATOM     15  H   LIG    1       -2.862   1.255  -0.079  0.00  0.00    +0.189 HD
ATOM     16  N   LIG    1       -0.836   0.974  -0.315  0.00  0.00    -0.169 NA
ATOM     17  C   LIG    1       -0.112  -0.134  -0.327  0.00  0.00    +0.150 A 
ATOM     18  C   LIG    1       -0.941  -1.264  -0.105  0.00  0.00    +0.008 A 
ATOM     19  C   LIG    1       -0.696  -2.766   0.059  0.00  0.00    +0.058 C 
ATOM     20  C   LIG    1       -1.919  -3.419   0.764  0.00  0.00    +0.113 C 
ATOM     21  O   LIG    1       -3.224  -4.825  -1.252  0.00  0.00    -0.276 OA
ENDBRANCH   1  17
BRANCH   5  22
ATOM     22  C   LIG    1        3.139  -0.611  -4.995  0.00  0.00    -0.030 A 
ATOM     23  C   LIG    1        3.720  -0.244  -6.238  0.00  0.00    +0.096 A 
ATOM     24  C   LIG    1        3.784  -1.212  -7.263  0.00  0.00    +0.170 A 
ATOM     25  F   LIG    1        4.336  -0.933  -8.467  0.00  0.00    -0.202 F 
ATOM     26  C   LIG    1        3.277  -2.497  -7.068  0.00  0.00    +0.159 A 
ATOM     27  F   LIG    1        3.343  -3.412  -8.063  0.00  0.00    -0.202 F 
ATOM     28  C   LIG    1        2.698  -2.844  -5.855  0.00  0.00    +0.041 A 
ATOM     29  C   LIG    1        2.631  -1.908  -4.831  0.00  0.00    +0.007 A 
BRANCH  23  30
ATOM     30  C   LIG    1        4.263   1.178  -6.481  0.00  0.00    +0.420 C 
ATOM     31  F   LIG    1        5.283   1.415  -5.654  0.00  0.00    -0.166 F 
ATOM     32  F   LIG    1        3.302   2.076  -6.257  0.00  0.00    -0.166 F 
ATOM     33  F   LIG    1        4.707   1.395  -7.719  0.00  0.00    -0.166 F 
ENDBRANCH  23  30
ENDBRANCH   5  22
TORSDOF 3
