REMARK  Name = DB17662
REMARK                            x       y       z     vdW  Elec       q    Type
REMARK                         _______ _______ _______ _____ _____    ______ ____
ROOT
ATOM      1  C   LIG    1        2.128   0.548  -1.352  0.00  0.00    +0.022 C 
ATOM      2  C   LIG    1        3.252  -0.010  -1.867  0.00  0.00    -0.011 C 
ENDROOT
BRANCH   2   3
ATOM      3  C   LIG    1        3.771   0.387  -3.214  0.00  0.00    -0.017 A 
ATOM      4  C   LIG    1        5.148   0.357  -3.485  0.00  0.00    +0.011 A 
ATOM      5  C   LIG    1        5.639   0.743  -4.730  0.00  0.00    +0.039 A 
ATOM      6  C   LIG    1        4.757   1.168  -5.719  0.00  0.00    +0.123 A 
ATOM      7  F   LIG    1        5.233   1.542  -6.928  0.00  0.00    -0.205 F 
ATOM      8  C   LIG    1        3.389   1.210  -5.470  0.00  0.00    +0.039 A 
ATOM      9  C   LIG    1        2.900   0.826  -4.224  0.00  0.00    +0.011 A 
ENDBRANCH   2   3
BRANCH   2  10
ATOM     10  C   LIG    1        4.027  -1.037  -1.119  0.00  0.00    -0.017 A 
ATOM     11  C   LIG    1        4.307  -2.275  -1.709  0.00  0.00    +0.010 A 
ATOM     12  C   LIG    1        5.041  -3.236  -1.018  0.00  0.00    +0.017 A 
ATOM     13  C   LIG    1        5.500  -2.962   0.272  0.00  0.00    +0.025 A 
ATOM     14  C   LIG    1        5.224  -1.732   0.869  0.00  0.00    +0.017 A 
ATOM     15  C   LIG    1        4.492  -0.773   0.174  0.00  0.00    +0.010 A 
BRANCH  13  16
ATOM     16  C   LIG    1        6.272  -3.959   0.998  0.00  0.00    -0.065 C 
ATOM     17  C   LIG    1        6.926  -4.774   1.632  0.00  0.00    -0.081 C 
BRANCH  17  18
ATOM     18  C   LIG    1        7.721  -5.737   2.418  0.00  0.00    +0.174 C 
BRANCH  18  19
ATOM     19  N   LIG    1        7.572  -5.486   3.856  0.00  0.00    -0.287 NA
ATOM     20  C   LIG    1        8.715  -6.032   4.601  0.00  0.00    +0.113 C 
ATOM     21  C   LIG    1        8.559  -5.808   6.121  0.00  0.00    +0.175 C 
ATOM     22  O   LIG    1        7.321  -6.349   6.570  0.00  0.00    -0.377 OA
ATOM     23  C   LIG    1        6.203  -5.752   5.923  0.00  0.00    +0.175 C 
ATOM     24  C   LIG    1        6.292  -5.973   4.398  0.00  0.00    +0.113 C 
ENDBRANCH  18  19
ENDBRANCH  17  18
ENDBRANCH  13  16
ENDBRANCH   2  10
BRANCH   1  25
ATOM     25  C   LIG    1        1.452   0.204  -0.030  0.00  0.00    +0.257 C 
BRANCH  25  26
ATOM     26  O   LIG    1        0.032   0.337  -0.109  0.00  0.00    -0.488 OA
BRANCH  26  32
ATOM     27  C   LIG    1       -4.163   2.835  -0.238  0.00  0.00    +0.047 C 
ATOM     28  C   LIG    1       -2.646   2.840  -0.125  0.00  0.00    -0.005 A 
ATOM     29  C   LIG    1       -1.949   4.048   0.023  0.00  0.00    +0.124 A 
ATOM     30  C   LIG    1       -0.549   4.010   0.122  0.00  0.00    +0.049 A 
ATOM     31  C   LIG    1        0.138   2.798   0.078  0.00  0.00    +0.049 A 
ATOM     32  C   LIG    1       -0.559   1.588  -0.064  0.00  0.00    +0.121 A 
ATOM     33  C   LIG    1       -1.950   1.627  -0.165  0.00  0.00    +0.052 A 
BRANCH  29  34
ATOM     34  O   LIG    1       -2.691   5.215   0.061  0.00  0.00    -0.481 OA
BRANCH  34  35
ATOM     35  C   LIG    1       -2.033   6.470   0.271  0.00  0.00    +0.349 C 
BRANCH  35  36
ATOM     36  C   LIG    1       -3.070   7.615   0.313  0.00  0.00    +0.343 C 
ATOM     37  O   LIG    1       -2.610   8.764   0.503  0.00  0.00    -0.247 OA
BRANCH  36  38
ATOM     38  O   LIG    1       -4.288   7.364   0.160  0.00  0.00    -0.478 OA
ATOM     39  H   LIG    1       -4.916   8.059   0.186  0.00  0.00    +0.295 HD
ENDBRANCH  36  38
ENDBRANCH  35  36
ENDBRANCH  34  35
ENDBRANCH  29  34
ENDBRANCH  26  32
ENDBRANCH  25  26
ENDBRANCH   1  25
TORSDOF 12
