REMARK  Name = DB17240
REMARK                            x       y       z     vdW  Elec       q    Type
REMARK                         _______ _______ _______ _____ _____    ______ ____
ROOT
ATOM      1  C   LIG    1       -2.111   0.010  -0.978  0.00  0.00    +0.103 C 
ATOM      2  C   LIG    1       -2.953   1.237  -1.478  0.00  0.00    +0.133 C 
ATOM      3  C   LIG    1       -4.457   0.898  -1.548  0.00  0.00    +0.044 C 
ATOM      4  C   LIG    1       -5.125   0.215  -0.292  0.00  0.00    -0.003 C 
ATOM      5  C   LIG    1       -5.460   1.367   0.715  0.00  0.00    +0.016 C 
ATOM      6  C   LIG    1       -6.407  -0.662  -0.732  0.00  0.00    -0.019 C 
ATOM      7  C   LIG    1       -6.001  -1.825  -1.707  0.00  0.00    +0.012 C 
ATOM      8  C   LIG    1       -7.450   0.233  -1.481  0.00  0.00    +0.008 C 
ATOM      9  C   LIG    1       -8.854  -0.381  -1.623  0.00  0.00    +0.005 C 
ATOM     10  C   LIG    1       -9.444  -0.808  -0.251  0.00  0.00    +0.003 C 
ATOM     11  C   LIG    1      -11.003  -1.092  -0.248  0.00  0.00    -0.005 C 
ATOM     12  C   LIG    1      -11.752   0.193  -0.705  0.00  0.00    +0.014 C 
ATOM     13  C   LIG    1      -11.414  -2.298  -1.138  0.00  0.00    +0.014 C 
ATOM     14  C   LIG    1      -11.422  -1.349   1.239  0.00  0.00    +0.127 C 
ATOM     15  C   LIG    1      -10.610  -2.482   1.910  0.00  0.00    +0.033 C 
ATOM     16  C   LIG    1       -9.100  -2.178   1.853  0.00  0.00    +0.010 C 
ATOM     17  C   LIG    1       -8.530  -1.913   0.419  0.00  0.00    -0.025 C 
ATOM     18  C   LIG    1       -8.502  -3.259  -0.376  0.00  0.00    +0.012 C 
ATOM     19  C   LIG    1       -7.080  -1.268   0.568  0.00  0.00    +0.006 C 
ATOM     20  C   LIG    1       -6.090  -2.112   1.433  0.00  0.00    +0.031 C 
ATOM     21  C   LIG    1       -4.628  -1.728   1.246  0.00  0.00    -0.026 C 
ATOM     22  C   LIG    1       -4.149  -0.722   0.480  0.00  0.00    -0.063 C 
ATOM     23  C   LIG    1       -2.632  -0.439   0.438  0.00  0.00    +0.035 C 
ATOM     24  C   LIG    1       -2.138   0.475   1.596  0.00  0.00    +0.019 C 
ATOM     25  C   LIG    1       -0.586   0.546   1.700  0.00  0.00    +0.003 C 
ATOM     26  C   LIG    1       -0.242   1.541   2.836  0.00  0.00    +0.014 C 
ATOM     27  C   LIG    1        0.049  -0.845   1.973  0.00  0.00    +0.014 C 
ATOM     28  C   LIG    1       -0.112   1.166   0.348  0.00  0.00    +0.184 C 
ATOM     29  C   LIG    1       -0.579   0.335  -0.881  0.00  0.00    +0.066 C 
ENDROOT
BRANCH   1  30
ATOM     30  C   LIG    1       -2.216  -1.172  -2.011  0.00  0.00    +0.319 C 
ATOM     31  O   LIG    1       -2.348  -2.343  -1.645  0.00  0.00    -0.250 OA
BRANCH  30  32
ATOM     32  O   LIG    1       -2.135  -0.756  -3.325  0.00  0.00    -0.432 OA
BRANCH  32  34
ATOM     33  C   LIG    1       -0.895  -2.534  -4.516  0.00  0.00    +0.221 C 
ATOM     34  C   LIG    1       -2.208  -1.700  -4.372  0.00  0.00    +0.343 C 
ATOM     35  O   LIG    1       -3.340  -2.527  -4.237  0.00  0.00    -0.331 OA
ATOM     36  C   LIG    1       -3.591  -3.358  -5.367  0.00  0.00    +0.179 C 
ATOM     37  C   LIG    1       -2.423  -4.366  -5.495  0.00  0.00    +0.177 C 
ATOM     38  C   LIG    1       -1.077  -3.616  -5.609  0.00  0.00    +0.180 C 
BRANCH  38  39
ATOM     39  O   LIG    1        0.016  -4.521  -5.601  0.00  0.00    -0.386 OA
ATOM     40  H   LIG    1        0.014  -4.997  -4.767  0.00  0.00    +0.210 HD
ENDBRANCH  38  39
BRANCH  37  41
ATOM     41  O   LIG    1       -2.603  -5.268  -6.575  0.00  0.00    -0.386 OA
ATOM     42  H   LIG    1       -2.570  -4.774  -7.397  0.00  0.00    +0.210 HD
ENDBRANCH  37  41
BRANCH  33  43
ATOM     43  O   LIG    1        0.280  -1.791  -4.885  0.00  0.00    -0.337 OA
BRANCH  43  47
ATOM     44  C   LIG    1        1.841   1.357  -5.510  0.00  0.00    +0.181 C 
ATOM     45  C   LIG    1        2.638   0.041  -5.494  0.00  0.00    +0.186 C 
ATOM     46  C   LIG    1        2.343  -0.770  -4.205  0.00  0.00    +0.202 C 
ATOM     47  C   LIG    1        0.830  -0.903  -3.956  0.00  0.00    +0.282 C 
ATOM     48  O   LIG    1        0.210   0.357  -4.013  0.00  0.00    -0.343 OA
ATOM     49  C   LIG    1        0.351   1.063  -5.246  0.00  0.00    +0.150 C 
ATOM     50  C   LIG    1       -0.507   2.333  -5.141  0.00  0.00    +0.041 C 
BRANCH  46  51
ATOM     51  O   LIG    1        2.952  -0.188  -3.067  0.00  0.00    -0.384 OA
ATOM     52  H   LIG    1        3.826   0.121  -3.320  0.00  0.00    +0.210 HD
ENDBRANCH  46  51
BRANCH  44  53
ATOM     53  O   LIG    1        2.002   1.984  -6.785  0.00  0.00    -0.340 OA
BRANCH  53  54
ATOM     54  C   LIG    1        2.381   3.329  -6.787  0.00  0.00    +0.282 C 
ATOM     55  C   LIG    1        3.902   3.455  -6.705  0.00  0.00    +0.201 C 
ATOM     56  C   LIG    1        4.100   4.772  -7.442  0.00  0.00    +0.179 C 
ATOM     57  C   LIG    1        3.029   4.744  -8.537  0.00  0.00    +0.178 C 
ATOM     58  O   LIG    1        2.005   3.916  -7.994  0.00  0.00    -0.341 OA
BRANCH  55  59
ATOM     59  O   LIG    1        4.350   3.456  -5.361  0.00  0.00    -0.384 OA
ATOM     60  H   LIG    1        4.007   4.238  -4.924  0.00  0.00    +0.210 HD
ENDBRANCH  55  59
BRANCH  56  61
ATOM     61  O   LIG    1        5.413   4.920  -7.950  0.00  0.00    -0.386 OA
ATOM     62  H   LIG    1        5.593   4.189  -8.546  0.00  0.00    +0.210 HD
ENDBRANCH  56  61
BRANCH  57  63
ATOM     63  C   LIG    1        2.443   6.126  -8.884  0.00  0.00    +0.190 C 
BRANCH  63  64
ATOM     64  O   LIG    1        1.485   6.016  -9.917  0.00  0.00    -0.392 OA
ATOM     65  H   LIG    1        0.735   5.517  -9.584  0.00  0.00    +0.210 HD
ENDBRANCH  63  64
ENDBRANCH  57  63
ENDBRANCH  53  54
ENDBRANCH  44  53
BRANCH  45  66
ATOM     66  O   LIG    1        4.016   0.358  -5.712  0.00  0.00    -0.340 OA
BRANCH  66  67
ATOM     67  C   LIG    1        4.939  -0.688  -5.763  0.00  0.00    +0.282 C 
ATOM     68  C   LIG    1        6.150  -0.173  -6.559  0.00  0.00    +0.201 C 
ATOM     69  C   LIG    1        7.274  -1.239  -6.556  0.00  0.00    +0.179 C 
ATOM     70  C   LIG    1        7.582  -1.736  -5.125  0.00  0.00    +0.177 C 
ATOM     71  C   LIG    1        6.269  -2.091  -4.379  0.00  0.00    +0.178 C 
ATOM     72  O   LIG    1        5.353  -0.997  -4.457  0.00  0.00    -0.341 OA
BRANCH  68  73
ATOM     73  O   LIG    1        5.778   0.189  -7.878  0.00  0.00    -0.384 OA
ATOM     74  H   LIG    1        5.806  -0.595  -8.431  0.00  0.00    +0.210 HD
ENDBRANCH  68  73
BRANCH  69  75
ATOM     75  O   LIG    1        8.443  -0.769  -7.210  0.00  0.00    -0.386 OA
ATOM     76  H   LIG    1        8.785  -0.016  -6.722  0.00  0.00    +0.210 HD
ENDBRANCH  69  75
BRANCH  70  77
ATOM     77  O   LIG    1        8.483  -2.831  -5.137  0.00  0.00    -0.386 OA
ATOM     78  H   LIG    1        8.129  -3.516  -5.709  0.00  0.00    +0.210 HD
ENDBRANCH  70  77
BRANCH  71  79
ATOM     79  C   LIG    1        6.458  -2.446  -2.886  0.00  0.00    +0.190 C 
BRANCH  79  80
ATOM     80  O   LIG    1        7.034  -1.381  -2.154  0.00  0.00    -0.392 OA
ATOM     81  H   LIG    1        6.400  -0.661  -2.114  0.00  0.00    +0.210 HD
ENDBRANCH  79  80
ENDBRANCH  71  79
ENDBRANCH  66  67
ENDBRANCH  45  66
ENDBRANCH  43  47
ENDBRANCH  33  43
BRANCH  36  82
ATOM     82  C   LIG    1       -4.975  -4.007  -5.136  0.00  0.00    +0.190 C 
BRANCH  82  83
ATOM     83  O   LIG    1       -5.504  -4.560  -6.325  0.00  0.00    -0.392 OA
ATOM     84  H   LIG    1       -6.353  -4.961  -6.125  0.00  0.00    +0.210 HD
ENDBRANCH  82  83
ENDBRANCH  36  82
ENDBRANCH  32  34
ENDBRANCH  30  32
ENDBRANCH   1  30
BRANCH   2  85
ATOM     85  O   LIG    1       -2.740   2.448  -0.781  0.00  0.00    -0.391 OA
ATOM     86  H   LIG    1       -1.814   2.688  -0.860  0.00  0.00    +0.210 HD
ENDBRANCH   2  85
BRANCH  14  87
ATOM     87  O   LIG    1      -12.827  -1.621   1.301  0.00  0.00    -0.346 OA
BRANCH  87  88
ATOM     88  C   LIG    1      -13.512  -1.226   2.454  0.00  0.00    +0.274 C 
ATOM     89  C   LIG    1      -15.018  -1.301   2.145  0.00  0.00    +0.160 C 
ATOM     90  C   LIG    1      -15.803  -0.895   3.420  0.00  0.00    +0.171 C 
ATOM     91  C   LIG    1      -15.329  -1.683   4.665  0.00  0.00    +0.176 C 
ATOM     92  C   LIG    1      -13.782  -1.664   4.759  0.00  0.00    +0.178 C 
ATOM     93  O   LIG    1      -13.228  -2.099   3.514  0.00  0.00    -0.341 OA
BRANCH  89  94
ATOM     94  N   LIG    1      -15.420  -0.558   0.941  0.00  0.00    -0.305 N 
ATOM     95  H   LIG    1      -15.526   0.440   1.057  0.00  0.00    +0.149 HD
ATOM     96  C   LIG    1      -15.632  -1.078  -0.281  0.00  0.00    +0.210 C 
ATOM     97  O   LIG    1      -15.518  -2.273  -0.551  0.00  0.00    -0.276 OA
ATOM     98  C   LIG    1      -16.025  -0.093  -1.377  0.00  0.00    +0.109 C 
ENDBRANCH  89  94
BRANCH  90  99
ATOM     99  O   LIG    1      -17.205  -0.998   3.228  0.00  0.00    -0.387 OA
ATOM    100  H   LIG    1      -17.423  -1.916   3.054  0.00  0.00    +0.210 HD
ENDBRANCH  90  99
BRANCH  91 101
ATOM    101  O   LIG    1      -15.922  -1.178   5.850  0.00  0.00    -0.387 OA
ATOM    102  H   LIG    1      -15.801  -1.822   6.552  0.00  0.00    +0.210 HD
ENDBRANCH  91 101
BRANCH  92 103
ATOM    103  C   LIG    1      -13.229  -2.579   5.868  0.00  0.00    +0.197 C 
BRANCH 103 104
ATOM    104  O   LIG    1      -11.804  -2.490   5.867  0.00  0.00    -0.346 OA
BRANCH 104 105
ATOM    105  C   LIG    1      -11.111  -3.034   6.955  0.00  0.00    +0.282 C 
ATOM    106  C   LIG    1      -11.230  -2.110   8.186  0.00  0.00    +0.208 C 
ATOM    107  C   LIG    1      -10.427  -2.716   9.361  0.00  0.00    +0.179 C 
ATOM    108  C   LIG    1      -10.807  -4.198   9.589  0.00  0.00    +0.174 C 
ATOM    109  C   LIG    1      -10.722  -4.978   8.251  0.00  0.00    +0.149 C 
ATOM    110  C   LIG    1      -11.131  -6.457   8.359  0.00  0.00    +0.041 C 
ATOM    111  O   LIG    1      -11.540  -4.339   7.261  0.00  0.00    -0.343 OA
BRANCH 107 112
ATOM    112  O   LIG    1      -10.557  -1.946  10.545  0.00  0.00    -0.386 OA
ATOM    113  H   LIG    1      -11.473  -1.981  10.832  0.00  0.00    +0.210 HD
ENDBRANCH 107 112
BRANCH 108 114
ATOM    114  O   LIG    1      -12.082  -4.342  10.198  0.00  0.00    -0.387 OA
ATOM    115  H   LIG    1      -12.747  -3.993   9.600  0.00  0.00    +0.210 HD
ENDBRANCH 108 114
BRANCH 106 116
ATOM    116  O   LIG    1      -10.724  -0.822   7.829  0.00  0.00    -0.338 OA
BRANCH 116 117
ATOM    117  C   LIG    1      -11.529   0.277   8.136  0.00  0.00    +0.282 C 
ATOM    118  C   LIG    1      -10.701   1.541   7.829  0.00  0.00    +0.201 C 
ATOM    119  C   LIG    1      -11.569   2.816   7.987  0.00  0.00    +0.178 C 
ATOM    120  C   LIG    1      -12.883   2.667   7.198  0.00  0.00    +0.171 C 
ATOM    121  C   LIG    1      -13.569   1.350   7.597  0.00  0.00    +0.197 C 
ATOM    122  O   LIG    1      -12.699   0.246   7.351  0.00  0.00    -0.346 OA
BRANCH 118 123
ATOM    123  O   LIG    1       -9.545   1.604   8.645  0.00  0.00    -0.384 OA
ATOM    124  H   LIG    1       -9.176   2.488   8.581  0.00  0.00    +0.210 HD
ENDBRANCH 118 123
BRANCH 119 125
ATOM    125  O   LIG    1      -10.860   3.980   7.594  0.00  0.00    -0.386 OA
ATOM    126  H   LIG    1      -10.869   4.604   8.324  0.00  0.00    +0.210 HD
ENDBRANCH 119 125
BRANCH 120 127
ATOM    127  O   LIG    1      -13.758   3.761   7.412  0.00  0.00    -0.387 OA
ATOM    128  H   LIG    1      -13.393   4.532   6.973  0.00  0.00    +0.210 HD
ENDBRANCH 120 127
ENDBRANCH 116 117
ENDBRANCH 106 116
ENDBRANCH 104 105
ENDBRANCH 103 104
ENDBRANCH  92 103
ENDBRANCH  87  88
ENDBRANCH  14  87
BRANCH  28 129
ATOM    129  O   LIG    1        1.314   1.293   0.295  0.00  0.00    -0.457 OA
BRANCH 129 130
ATOM    130  C   LIG    1        1.942   2.140  -0.574  0.00  0.00    +0.337 C 
ATOM    131  O   LIG    1        1.336   2.961  -1.270  0.00  0.00    -0.245 OA
BRANCH 130 132
ATOM    132  C   LIG    1        3.413   1.951  -0.637  0.00  0.00    +0.058 C 
ATOM    133  C   LIG    1        4.125   2.657  -1.551  0.00  0.00    -0.014 C 
BRANCH 133 134
ATOM    134  C   LIG    1        5.619   2.561  -1.811  0.00  0.00    +0.031 C 
BRANCH 134 135
ATOM    135  C   LIG    1        6.455   3.401  -0.821  0.00  0.00    +0.043 C 
BRANCH 135 136
ATOM    136  C   LIG    1        7.998   3.320  -0.973  0.00  0.00    +0.088 C 
ATOM    137  C   LIG    1        8.429   3.918  -2.339  0.00  0.00    +0.046 C 
BRANCH 136 138
ATOM    138  C   LIG    1        8.481   1.873  -0.835  0.00  0.00    -0.000 C 
ATOM    139  C   LIG    1        8.986   1.298   0.269  0.00  0.00    +0.007 C 
ENDBRANCH 136 138
BRANCH 136 140
ATOM    140  O   LIG    1        8.451   4.123   0.137  0.00  0.00    -0.338 OA
BRANCH 140 141
ATOM    141  C   LIG    1        9.729   4.705   0.148  0.00  0.00    +0.283 C 
ATOM    142  C   LIG    1        9.879   5.442   1.488  0.00  0.00    +0.202 C 
ATOM    143  C   LIG    1       11.293   6.068   1.599  0.00  0.00    +0.191 C 
ATOM    144  C   LIG    1       12.408   5.063   1.220  0.00  0.00    +0.236 C 
ATOM    145  C   LIG    1       12.043   4.284  -0.066  0.00  0.00    +0.162 C 
ATOM    146  C   LIG    1       13.018   3.131  -0.353  0.00  0.00    +0.042 C 
ATOM    147  O   LIG    1       10.733   3.729   0.054  0.00  0.00    -0.342 OA
BRANCH 142 148
ATOM    148  O   LIG    1        8.871   6.426   1.655  0.00  0.00    -0.384 OA
ATOM    149  H   LIG    1        9.130   7.002   2.379  0.00  0.00    +0.210 HD
ENDBRANCH 142 148
BRANCH 143 150
ATOM    150  O   LIG    1       11.493   6.596   2.899  0.00  0.00    -0.385 OA
ATOM    151  H   LIG    1       12.435   6.717   3.039  0.00  0.00    +0.210 HD
ENDBRANCH 143 150
BRANCH 144 152
ATOM    152  O   LIG    1       13.644   5.744   0.988  0.00  0.00    -0.453 OA
BRANCH 152 153
ATOM    153  C   LIG    1       14.587   5.925   1.953  0.00  0.00    +0.337 C 
ATOM    154  O   LIG    1       14.467   5.528   3.114  0.00  0.00    -0.245 OA
BRANCH 153 155
ATOM    155  C   LIG    1       15.748   6.715   1.492  0.00  0.00    +0.058 C 
ATOM    156  C   LIG    1       16.125   6.666   0.190  0.00  0.00    -0.014 C 
BRANCH 156 157
ATOM    157  C   LIG    1       17.256   7.430  -0.477  0.00  0.00    +0.031 C 
BRANCH 157 158
ATOM    158  C   LIG    1       16.870   8.829  -1.018  0.00  0.00    +0.043 C 
BRANCH 158 159
ATOM    159  C   LIG    1       15.737   8.906  -2.086  0.00  0.00    +0.081 C 
ATOM    160  C   LIG    1       15.721  10.308  -2.730  0.00  0.00    +0.046 C 
BRANCH 159 161
ATOM    161  C   LIG    1       14.353   8.586  -1.510  0.00  0.00    -0.001 C 
ATOM    162  C   LIG    1       13.490   7.634  -1.911  0.00  0.00    +0.007 C 
ENDBRANCH 159 161
BRANCH 159 163
ATOM    163  O   LIG    1       16.049   8.002  -3.135  0.00  0.00    -0.385 OA
ATOM    164  H   LIG    1       16.100   7.118  -2.766  0.00  0.00    +0.211 HD
ENDBRANCH 159 163
ENDBRANCH 158 159
ENDBRANCH 157 158
ENDBRANCH 156 157
BRANCH 155 165
ATOM    165  C   LIG    1       16.433   7.571   2.563  0.00  0.00    +0.198 C 
BRANCH 165 166
ATOM    166  O   LIG    1       15.564   8.609   2.978  0.00  0.00    -0.390 OA
ATOM    167  H   LIG    1       15.994   9.107   3.677  0.00  0.00    +0.210 HD
ENDBRANCH 165 166
ENDBRANCH 155 165
ENDBRANCH 153 155
ENDBRANCH 152 153
ENDBRANCH 144 152
ENDBRANCH 140 141
ENDBRANCH 136 140
ENDBRANCH 135 136
ENDBRANCH 134 135
ENDBRANCH 133 134
BRANCH 132 168
ATOM    168  C   LIG    1        4.042   0.926   0.320  0.00  0.00    +0.198 C 
BRANCH 168 169
ATOM    169  O   LIG    1        4.007   1.424   1.644  0.00  0.00    -0.390 OA
ATOM    170  H   LIG    1        4.588   2.186   1.700  0.00  0.00    +0.210 HD
ENDBRANCH 168 169
ENDBRANCH 132 168
ENDBRANCH 130 132
ENDBRANCH 129 130
ENDBRANCH  28 129
TORSDOF 62
