REMARK  Name = DB17876
REMARK                            x       y       z     vdW  Elec       q    Type
REMARK                         _______ _______ _______ _____ _____    ______ ____
ROOT
ATOM      1  C   LIG    1       -3.651   2.708  -0.607  0.00  0.00    +0.044 C 
ATOM      2  C   LIG    1       -2.152   2.728  -0.331  0.00  0.00    -0.043 A 
ATOM      3  C   LIG    1       -1.492   3.896   0.100  0.00  0.00    -0.037 A 
ATOM      4  C   LIG    1       -0.106   3.848   0.353  0.00  0.00    -0.043 A 
ATOM      5  C   LIG    1        0.668   5.070   0.834  0.00  0.00    +0.044 C 
ATOM      6  C   LIG    1        0.590   2.646   0.192  0.00  0.00    +0.049 A 
ATOM      7  C   LIG    1       -0.066   1.482  -0.230  0.00  0.00    +0.122 A 
ATOM      8  C   LIG    1       -1.433   1.542  -0.490  0.00  0.00    +0.049 A 
ENDROOT
BRANCH   3   9
ATOM      9  C   LIG    1       -2.273   5.211   0.265  0.00  0.00    +0.070 C 
BRANCH   9  10
ATOM     10  C   LIG    1       -2.962   5.418   1.615  0.00  0.00    -0.043 A 
ATOM     11  C   LIG    1       -2.548   4.739   2.768  0.00  0.00    +0.011 A 
ATOM     12  C   LIG    1       -3.180   4.951   3.997  0.00  0.00    -0.001 A 
ATOM     13  C   LIG    1       -4.261   5.844   4.067  0.00  0.00    +0.120 A 
ATOM     14  C   LIG    1       -4.685   6.515   2.919  0.00  0.00    +0.046 A 
ATOM     15  C   LIG    1       -4.039   6.304   1.702  0.00  0.00    +0.007 A 
BRANCH  13  16
ATOM     16  O   LIG    1       -4.918   6.082   5.248  0.00  0.00    -0.506 OA
ATOM     17  H   LIG    1       -5.639   6.708   5.153  0.00  0.00    +0.292 HD
ENDBRANCH  13  16
BRANCH  12  18
ATOM     18  C   LIG    1       -2.683   4.180   5.218  0.00  0.00    +0.074 C 
BRANCH  18  19
ATOM     19  C   LIG    1       -1.363   4.710   5.761  0.00  0.00    -0.043 A 
ATOM     20  C   LIG    1       -0.158   4.118   5.368  0.00  0.00    +0.004 A 
ATOM     21  C   LIG    1        1.048   4.597   5.872  0.00  0.00    +0.000 A 
ATOM     22  C   LIG    1        1.045   5.661   6.773  0.00  0.00    +0.000 A 
ATOM     23  C   LIG    1       -0.153   6.249   7.175  0.00  0.00    +0.000 A 
ATOM     24  C   LIG    1       -1.359   5.771   6.670  0.00  0.00    +0.004 A 
ENDBRANCH  18  19
ENDBRANCH  12  18
ENDBRANCH   9  10
ENDBRANCH   3   9
BRANCH   7  25
ATOM     25  O   LIG    1        0.549   0.258  -0.410  0.00  0.00    -0.480 OA
BRANCH  25  26
ATOM     26  C   LIG    1        1.929   0.116  -0.085  0.00  0.00    +0.355 C 
BRANCH  26  27
ATOM     27  P   LIG    1        2.356  -1.640  -0.432  0.00  0.00    +0.375 P 
ATOM     28  O   LIG    1        1.801  -2.664   0.496  0.00  0.00    -0.255 OA
BRANCH  27  29
ATOM     29  O   LIG    1        3.989  -1.613  -0.491  0.00  0.00    -0.268 OA
BRANCH  29  30
ATOM     30  C   LIG    1        4.696  -0.959  -1.533  0.00  0.00    +0.407 C 
BRANCH  30  31
ATOM     31  O   LIG    1        4.916  -1.827  -2.638  0.00  0.00    -0.437 OA
BRANCH  31  32
ATOM     32  C   LIG    1        5.575  -1.384  -3.737  0.00  0.00    +0.314 C 
ATOM     33  O   LIG    1        5.970  -0.225  -3.898  0.00  0.00    -0.250 OA
BRANCH  32  34
ATOM     34  C   LIG    1        5.806  -2.494  -4.802  0.00  0.00    +0.059 C 
ATOM     35  C   LIG    1        4.447  -3.042  -5.302  0.00  0.00    +0.022 C 
ATOM     36  C   LIG    1        6.573  -1.923  -6.025  0.00  0.00    +0.022 C 
ATOM     37  C   LIG    1        6.650  -3.640  -4.190  0.00  0.00    +0.022 C 
ENDBRANCH  32  34
ENDBRANCH  31  32
ENDBRANCH  30  31
ENDBRANCH  29  30
ENDBRANCH  27  29
BRANCH  27  38
ATOM     38  O   LIG    1        1.898  -1.803  -1.990  0.00  0.00    -0.268 OA
BRANCH  38  39
ATOM     39  C   LIG    1        1.923  -3.071  -2.617  0.00  0.00    +0.407 C 
BRANCH  39  40
ATOM     40  O   LIG    1        0.945  -3.945  -2.072  0.00  0.00    -0.437 OA
BRANCH  40  41
ATOM     41  C   LIG    1        0.844  -5.223  -2.505  0.00  0.00    +0.314 C 
ATOM     42  O   LIG    1        1.549  -5.728  -3.384  0.00  0.00    -0.250 OA
BRANCH  41  43
ATOM     43  C   LIG    1       -0.270  -6.020  -1.770  0.00  0.00    +0.059 C 
ATOM     44  C   LIG    1       -1.641  -5.338  -2.007  0.00  0.00    +0.022 C 
ATOM     45  C   LIG    1       -0.349  -7.476  -2.301  0.00  0.00    +0.022 C 
ATOM     46  C   LIG    1        0.042  -6.067  -0.254  0.00  0.00    +0.022 C 
ENDBRANCH  41  43
ENDBRANCH  40  41
ENDBRANCH  39  40
ENDBRANCH  38  39
ENDBRANCH  27  38
ENDBRANCH  26  27
ENDBRANCH  25  26
ENDBRANCH   7  25
TORSDOF 18
