REMARK  Name = DB17804
REMARK                            x       y       z     vdW  Elec       q    Type
REMARK                         _______ _______ _______ _____ _____    ______ ____
ROOT
ATOM      1  N   LIG    1        4.120  -2.897   0.117  0.00  0.00    +0.386 N 
ATOM      2  H   LIG    1        3.777  -3.348  -0.720  0.00  0.00    -0.081 HD
ATOM      3  C   LIG    1        5.687  -2.880   0.032  0.00  0.00    -0.011 C 
ATOM      4  C   LIG    1        6.270  -4.332   0.090  0.00  0.00    +0.134 C 
ATOM      5  C   LIG    1        5.694  -5.211   1.229  0.00  0.00    +0.168 C 
ATOM      6  C   LIG    1        4.154  -5.178   1.178  0.00  0.00    +0.129 C 
ATOM      7  C   LIG    1        3.655  -3.734   1.337  0.00  0.00    -0.044 C 
ENDROOT
BRANCH   4   8
ATOM      8  O   LIG    1        7.685  -4.293   0.166  0.00  0.00    -0.391 OA
ATOM      9  H   LIG    1        8.015  -5.195   0.167  0.00  0.00    +0.210 HD
ENDBRANCH   4   8
BRANCH   5  10
ATOM     10  O   LIG    1        6.191  -6.539   1.160  0.00  0.00    -0.387 OA
ATOM     11  H   LIG    1        5.874  -6.947   0.350  0.00  0.00    +0.210 HD
ENDBRANCH   5  10
BRANCH   6  12
ATOM     12  O   LIG    1        3.564  -6.001   2.168  0.00  0.00    -0.391 OA
ATOM     13  H   LIG    1        3.951  -5.787   3.020  0.00  0.00    +0.210 HD
ENDBRANCH   6  12
BRANCH   1  14
ATOM     14  C   LIG    1        3.537  -1.455   0.181  0.00  0.00    -0.078 C 
BRANCH  14  15
ATOM     15  C   LIG    1        1.994  -1.427   0.218  0.00  0.00    -0.019 C 
BRANCH  15  16
ATOM     16  C   LIG    1        1.437  -0.007   0.016  0.00  0.00    -0.002 C 
BRANCH  16  17
ATOM     17  C   LIG    1       -0.100   0.053   0.082  0.00  0.00    -0.000 C 
BRANCH  17  18
ATOM     18  C   LIG    1       -0.648   1.484  -0.069  0.00  0.00    +0.000 C 
BRANCH  18  19
ATOM     19  C   LIG    1       -2.185   1.551  -0.002  0.00  0.00    +0.000 C 
BRANCH  19  20
ATOM     20  C   LIG    1       -2.727   2.987  -0.108  0.00  0.00    +0.002 C 
BRANCH  20  21
ATOM     21  C   LIG    1       -4.265   3.056  -0.051  0.00  0.00    +0.028 C 
BRANCH  21  22
ATOM     22  C   LIG    1       -4.818   4.496  -0.092  0.00  0.00    +0.159 C 
BRANCH  22  24
ATOM     23  C   LIG    1       -4.952   4.819  -2.470  0.00  0.00    +0.193 C 
ATOM     24  O   LIG    1       -4.394   5.239  -1.232  0.00  0.00    -0.383 OA
ENDBRANCH  22  24
ENDBRANCH  21  22
ENDBRANCH  20  21
ENDBRANCH  19  20
ENDBRANCH  18  19
ENDBRANCH  17  18
ENDBRANCH  16  17
ENDBRANCH  15  16
ENDBRANCH  14  15
ENDBRANCH   1  14
BRANCH   3  25
ATOM     25  C   LIG    1        6.150  -2.119  -1.247  0.00  0.00    +0.143 C 
BRANCH  25  26
ATOM     26  O   LIG    1        5.569  -2.628  -2.433  0.00  0.00    -0.397 OA
ATOM     27  H   LIG    1        5.939  -2.156  -3.183  0.00  0.00    +0.209 HD
ENDBRANCH  25  26
ENDBRANCH   3  25
TORSDOF 15
