REMARK  Name = DB17063
REMARK                            x       y       z     vdW  Elec       q    Type
REMARK                         _______ _______ _______ _____ _____    ______ ____
ROOT
ATOM      1  C   LIG    1        2.247   0.449  -1.201  0.00  0.00    +0.154 A 
ATOM      2  N   LIG    1        3.606   0.512  -1.258  0.00  0.00    -0.246 NA
ATOM      3  C   LIG    1        4.345   0.413  -0.132  0.00  0.00    +0.137 A 
ATOM      4  C   LIG    1        3.727   0.281   1.107  0.00  0.00    +0.066 A 
ATOM      5  N   LIG    1        4.249   0.176   2.378  0.00  0.00    -0.353 N 
ATOM      6  H   LIG    1        5.234   0.178   2.602  0.00  0.00    +0.166 HD
ATOM      7  C   LIG    1        3.229   0.079   3.300  0.00  0.00    +0.048 A 
ATOM      8  C   LIG    1        2.003   0.125   2.584  0.00  0.00    +0.011 A 
ATOM      9  C   LIG    1        0.799   0.069   3.309  0.00  0.00    +0.056 A 
ATOM     10  C   LIG    1        0.827  -0.045   4.700  0.00  0.00    +0.122 A 
ATOM     11  C   LIG    1        2.059  -0.104   5.367  0.00  0.00    +0.048 A 
ATOM     12  C   LIG    1        3.276  -0.040   4.691  0.00  0.00    +0.030 A 
ATOM     13  C   LIG    1        2.312   0.228   1.203  0.00  0.00    +0.017 A 
ATOM     14  C   LIG    1        1.536   0.287   0.016  0.00  0.00    +0.020 A 
ENDROOT
BRANCH   1  15
ATOM     15  C   LIG    1        1.575   0.679  -2.521  0.00  0.00    +0.358 C 
ATOM     16  O   LIG    1        0.555   1.360  -2.662  0.00  0.00    -0.243 OA
BRANCH  15  17
ATOM     17  O   LIG    1        2.145  -0.043  -3.521  0.00  0.00    -0.460 OA
BRANCH  17  19
ATOM     18  C   LIG    1        2.495  -0.862  -5.763  0.00  0.00    +0.048 C 
ATOM     19  C   LIG    1        1.623  -0.001  -4.843  0.00  0.00    +0.229 C 
ENDBRANCH  17  19
ENDBRANCH  15  17
ENDBRANCH   1  15
BRANCH  10  20
ATOM     20  O   LIG    1       -0.403  -0.089   5.331  0.00  0.00    -0.487 OA
BRANCH  20  21
ATOM     21  C   LIG    1       -0.460  -0.198   6.750  0.00  0.00    +0.264 C 
BRANCH  21  22
ATOM     22  C   LIG    1       -1.912  -0.144   7.193  0.00  0.00    -0.010 A 
ATOM     23  C   LIG    1       -2.545   1.092   7.345  0.00  0.00    +0.007 A 
ATOM     24  C   LIG    1       -3.876   1.146   7.749  0.00  0.00    +0.000 A 
ATOM     25  C   LIG    1       -4.571  -0.036   7.997  0.00  0.00    +0.000 A 
ATOM     26  C   LIG    1       -3.946  -1.272   7.843  0.00  0.00    +0.000 A 
ATOM     27  C   LIG    1       -2.615  -1.327   7.439  0.00  0.00    +0.007 A 
ENDBRANCH  21  22
ENDBRANCH  20  21
ENDBRANCH  10  20
BRANCH  14  28
ATOM     28  C   LIG    1        0.012   0.161   0.055  0.00  0.00    +0.197 C 
BRANCH  28  29
ATOM     29  O   LIG    1       -0.548   1.411   0.428  0.00  0.00    -0.378 OA
ATOM     30  C   LIG    1       -1.964   1.390   0.520  0.00  0.00    +0.194 C 
ENDBRANCH  28  29
ENDBRANCH  14  28
TORSDOF 8
