REMARK  Name = DB17379
REMARK                            x       y       z     vdW  Elec       q    Type
REMARK                         _______ _______ _______ _____ _____    ______ ____
ROOT
ATOM      1  C   LIG    1       -4.350  -0.058   0.029  0.00  0.00    +0.008 A 
ATOM      2  C   LIG    1       -2.907  -0.096   0.058  0.00  0.00    -0.006 A 
ATOM      3  C   LIG    1       -2.138   1.088  -0.114  0.00  0.00    +0.013 A 
ATOM      4  C   LIG    1       -0.756   1.097  -0.104  0.00  0.00    -0.039 A 
ATOM      5  C   LIG    1       -0.049   2.445  -0.239  0.00  0.00    +0.044 C 
ATOM      6  C   LIG    1       -0.039  -0.095   0.001  0.00  0.00    +0.031 A 
ATOM      7  C   LIG    1       -0.747  -1.320   0.110  0.00  0.00    +0.133 A 
ATOM      8  C   LIG    1       -2.209  -1.345   0.239  0.00  0.00    +0.038 A 
ATOM      9  C   LIG    1       -3.031  -2.529   0.505  0.00  0.00    +0.070 A 
ATOM     10  C   LIG    1       -4.421  -2.472   0.295  0.00  0.00    +0.170 A 
ATOM     11  C   LIG    1       -5.059  -1.264   0.030  0.00  0.00    +0.163 A 
ENDROOT
BRANCH   6  12
ATOM     12  C   LIG    1        1.473  -0.016  -0.030  0.00  0.00    +0.031 A 
ATOM     13  C   LIG    1        2.194  -0.046   1.163  0.00  0.00    -0.039 A 
ATOM     14  C   LIG    1        1.488  -0.116   2.514  0.00  0.00    +0.044 C 
ATOM     15  C   LIG    1        3.579  -0.031   1.140  0.00  0.00    +0.013 A 
ATOM     16  C   LIG    1        4.329   0.056  -0.065  0.00  0.00    -0.006 A 
ATOM     17  C   LIG    1        5.771   0.006  -0.067  0.00  0.00    +0.008 A 
ATOM     18  C   LIG    1        6.452   0.097  -1.289  0.00  0.00    +0.163 A 
ATOM     19  C   LIG    1        5.771   0.303  -2.486  0.00  0.00    +0.170 A 
ATOM     20  C   LIG    1        4.369   0.406  -2.522  0.00  0.00    +0.070 A 
ATOM     21  C   LIG    1        3.606   0.191  -1.305  0.00  0.00    +0.038 A 
ATOM     22  C   LIG    1        2.162   0.071  -1.250  0.00  0.00    +0.133 A 
BRANCH  17  23
ATOM     23  C   LIG    1        6.582  -0.167   1.250  0.00  0.00    +0.017 C 
ATOM     24  C   LIG    1        6.532   1.058   2.188  0.00  0.00    +0.012 C 
ATOM     25  C   LIG    1        6.378  -1.531   1.948  0.00  0.00    +0.012 C 
ENDBRANCH  17  23
BRANCH  20  26
ATOM     26  C   LIG    1        3.771   0.818  -3.838  0.00  0.00    +0.263 C 
ATOM     27  O   LIG    1        2.855   1.628  -3.981  0.00  0.00    -0.296 OA
ENDBRANCH  20  26
BRANCH  19  28
ATOM     28  O   LIG    1        6.532   0.431  -3.633  0.00  0.00    -0.503 OA
ATOM     29  H   LIG    1        7.472   0.344  -3.454  0.00  0.00    +0.292 HD
ENDBRANCH  19  28
BRANCH  18  30
ATOM     30  O   LIG    1        7.827   0.012  -1.332  0.00  0.00    -0.503 OA
ATOM     31  H   LIG    1        8.215  -0.123  -0.465  0.00  0.00    +0.292 HD
ENDBRANCH  18  30
BRANCH  22  32
ATOM     32  O   LIG    1        1.395  -0.035  -2.385  0.00  0.00    -0.506 OA
ATOM     33  H   LIG    1        0.463  -0.149  -2.184  0.00  0.00    +0.292 HD
ENDBRANCH  22  32
ENDBRANCH   6  12
BRANCH   1  35
ATOM     34  C   LIG    1       -6.345   1.430   0.857  0.00  0.00    +0.012 C 
ATOM     35  C   LIG    1       -5.103   1.300  -0.057  0.00  0.00    +0.017 C 
ATOM     36  C   LIG    1       -5.407   1.696  -1.513  0.00  0.00    +0.012 C 
ENDBRANCH   1  35
BRANCH   7  37
ATOM     37  O   LIG    1       -0.062  -2.400  -0.005  0.00  0.00    -0.506 OA
ATOM     38  H   LIG    1       -0.487  -3.233   0.060  0.00  0.00    +0.292 HD
ENDBRANCH   7  37
BRANCH   9  39
ATOM     39  C   LIG    1       -2.516  -3.824   1.079  0.00  0.00    +0.263 C 
ATOM     40  O   LIG    1       -1.657  -3.916   1.955  0.00  0.00    -0.296 OA
ENDBRANCH   9  39
BRANCH  10  41
ATOM     41  O   LIG    1       -5.208  -3.606   0.388  0.00  0.00    -0.503 OA
ATOM     42  H   LIG    1       -6.145  -3.434   0.273  0.00  0.00    +0.292 HD
ENDBRANCH  10  41
BRANCH  11  43
ATOM     43  O   LIG    1       -6.414  -1.273  -0.212  0.00  0.00    -0.503 OA
ATOM     44  H   LIG    1       -6.799  -2.150  -0.224  0.00  0.00    +0.292 HD
ENDBRANCH  11  43
TORSDOF 11
