REMARK  Name = DB17640
REMARK                            x       y       z     vdW  Elec       q    Type
REMARK                         _______ _______ _______ _____ _____    ______ ____
ROOT
ATOM      1  S   LIG    1        2.247  -1.653   0.005  0.00  0.00    -0.043 S 
ENDROOT
BRANCH   1   2
ATOM      2  P   LIG    1        4.334  -1.070   0.001  0.00  0.00    +0.386 P 
ATOM      3  O   LIG    1        5.112  -2.399   0.015  0.00  0.00    -0.246 OA
BRANCH   2   4
ATOM      4  O   LIG    1        4.512  -0.234   1.281  0.00  0.00    -0.316 OA
ATOM      5  H   LIG    1        3.998   0.586   1.206  0.00  0.00    +0.221 HD
ENDBRANCH   2   4
BRANCH   2   6
ATOM      6  O   LIG    1        4.513  -0.260  -1.297  0.00  0.00    -0.316 OA
ATOM      7  H   LIG    1        3.999   0.560  -1.239  0.00  0.00    +0.221 HD
ENDBRANCH   2   6
ENDBRANCH   1   2
BRANCH   1   8
ATOM      8  C   LIG    1        1.507   0.001   0.000  0.00  0.00    +0.062 C 
BRANCH   8   9
ATOM      9  C   LIG    1       -0.028  -0.022  -0.001  0.00  0.00    -0.075 C 
BRANCH   9  10
ATOM     10  N   LIG    1       -0.576   1.409  -0.000  0.00  0.00    +0.379 N 
ATOM     11  H   LIG    1       -0.253   1.900   0.821  0.00  0.00    -0.090 HD
ATOM     12  H   LIG    1       -0.253   1.901  -0.821  0.00  0.00    -0.090 HD
ATOM     13  H   LIG    1       -1.585   1.396  -0.001  0.00  0.00    -0.090 HD
ENDBRANCH   9  10
ENDBRANCH   8   9
ENDBRANCH   1   8
TORSDOF 6
