REMARK  Name = DB17385
REMARK                            x       y       z     vdW  Elec       q    Type
REMARK                         _______ _______ _______ _____ _____    ______ ____
ROOT
ATOM      1  C   LIG    1        1.646  -1.612   0.664  0.00  0.00    +0.352 C 
ATOM      2  O   LIG    1        0.900  -2.545   0.968  0.00  0.00    -0.247 OA
ENDROOT
BRANCH   1   3
ATOM      3  C   LIG    1        3.127  -1.858   0.271  0.00  0.00    +0.309 C 
ATOM      4  C   LIG    1        3.734  -0.838  -0.724  0.00  0.00    +0.067 C 
BRANCH   3   5
ATOM      5  O   LIG    1        3.396  -3.204  -0.163  0.00  0.00    -0.379 OA
BRANCH   5   6
ATOM      6  N   LIG    1        2.608  -3.579  -1.280  0.00  0.00    -0.083 NA
ATOM      7  C   LIG    1        3.255  -4.223  -2.169  0.00  0.00    +0.118 C 
ATOM      8  C   LIG    1        4.694  -4.489  -2.341  0.00  0.00    +0.016 A 
ATOM      9  C   LIG    1        5.796  -4.079  -1.580  0.00  0.00    +0.043 A 
ATOM     10  C   LIG    1        7.091  -4.510  -1.886  0.00  0.00    +0.124 A 
ATOM     11  C   LIG    1        7.256  -5.413  -2.940  0.00  0.00    +0.065 A 
ATOM     12  C   LIG    1        6.169  -5.849  -3.706  0.00  0.00    +0.132 A 
ATOM     13  C   LIG    1        4.891  -5.300  -3.464  0.00  0.00    +0.024 A 
ATOM     14  C   LIG    1        3.585  -5.420  -4.158  0.00  0.00    +0.024 A 
ATOM     15  C   LIG    1        3.188  -5.906  -5.423  0.00  0.00    +0.132 A 
ATOM     16  C   LIG    1        1.822  -6.032  -5.707  0.00  0.00    +0.065 A 
ATOM     17  C   LIG    1        0.844  -5.598  -4.806  0.00  0.00    +0.124 A 
ATOM     18  C   LIG    1        1.264  -4.987  -3.620  0.00  0.00    +0.043 A 
ATOM     19  C   LIG    1        2.622  -4.879  -3.309  0.00  0.00    +0.016 A 
BRANCH  10  20
ATOM     20  N   LIG    1        8.255  -4.052  -1.087  0.00  0.00    +0.006 N 
ATOM     21  O   LIG    1        9.370  -4.478  -1.375  0.00  0.00    -0.130 OA
BRANCH  20  22
ATOM     22  O   LIG    1        8.063  -3.260  -0.168  0.00  0.00    -0.396 OA
ATOM     23  H   LIG    1        7.195  -2.960   0.018  0.00  0.00    +0.329 HD
ENDBRANCH  20  22
ENDBRANCH  10  20
BRANCH  12  24
ATOM     24  N   LIG    1        6.401  -6.946  -4.664  0.00  0.00    +0.007 N 
ATOM     25  O   LIG    1        5.609  -7.883  -4.661  0.00  0.00    -0.130 OA
BRANCH  24  26
ATOM     26  O   LIG    1        7.398  -6.892  -5.378  0.00  0.00    -0.396 OA
ATOM     27  H   LIG    1        7.965  -6.148  -5.335  0.00  0.00    +0.329 HD
ENDBRANCH  24  26
ENDBRANCH  12  24
BRANCH  15  28
ATOM     28  N   LIG    1        4.143  -6.186  -6.511  0.00  0.00    +0.007 N 
ATOM     29  O   LIG    1        5.051  -5.381  -6.693  0.00  0.00    -0.130 OA
BRANCH  28  30
ATOM     30  O   LIG    1        3.950  -7.171  -7.216  0.00  0.00    -0.396 OA
ATOM     31  H   LIG    1        3.239  -7.751  -7.027  0.00  0.00    +0.329 HD
ENDBRANCH  28  30
ENDBRANCH  15  28
BRANCH  17  32
ATOM     32  N   LIG    1       -0.598  -5.734  -5.123  0.00  0.00    +0.006 N 
ATOM     33  O   LIG    1       -1.420  -5.425  -4.266  0.00  0.00    -0.130 OA
BRANCH  32  34
ATOM     34  O   LIG    1       -0.918  -6.144  -6.236  0.00  0.00    -0.396 OA
ATOM     35  H   LIG    1       -0.257  -6.369  -6.861  0.00  0.00    +0.329 HD
ENDBRANCH  32  34
ENDBRANCH  17  32
ENDBRANCH   5   6
ENDBRANCH   3   5
ENDBRANCH   1   3
BRANCH   1  36
ATOM     36  O   LIG    1        1.266  -0.297   0.555  0.00  0.00    -0.439 OA
BRANCH  36  37
ATOM     37  C   LIG    1       -0.103   0.171   0.479  0.00  0.00    +0.234 C 
ATOM     38  C   LIG    1       -0.770  -0.351  -0.808  0.00  0.00    +0.020 A 
ATOM     39  C   LIG    1       -0.003  -0.672  -2.011  0.00  0.00    +0.036 A 
ATOM     40  C   LIG    1       -0.648  -1.204  -3.062  0.00  0.00    +0.071 A 
ATOM     41  C   LIG    1       -0.153  -1.683  -4.353  0.00  0.00    +0.093 A 
ATOM     42  N   LIG    1        1.139  -1.697  -4.753  0.00  0.00    -0.245 NA
ATOM     43  C   LIG    1        1.419  -2.246  -5.968  0.00  0.00    +0.072 A 
ATOM     44  C   LIG    1        0.403  -2.789  -6.825  0.00  0.00    +0.006 A 
ATOM     45  C   LIG    1       -0.947  -2.701  -6.359  0.00  0.00    +0.018 A 
ATOM     46  C   LIG    1        0.800  -3.384  -8.071  0.00  0.00    -0.013 A 
ATOM     47  C   LIG    1        2.160  -3.405  -8.421  0.00  0.00    +0.119 A 
ATOM     48  C   LIG    1        3.123  -2.854  -7.585  0.00  0.00    +0.048 A 
ATOM     49  C   LIG    1        2.772  -2.285  -6.369  0.00  0.00    +0.032 A 
ATOM     50  C   LIG    1       -1.208  -2.158  -5.104  0.00  0.00    +0.000 A 
ATOM     51  C   LIG    1       -2.492  -1.986  -4.340  0.00  0.00    +0.162 C 
ATOM     52  N   LIG    1       -2.005  -1.422  -3.081  0.00  0.00    -0.302 N 
ATOM     53  C   LIG    1       -2.816  -1.110  -2.017  0.00  0.00    +0.259 A 
ATOM     54  O   LIG    1       -4.036  -1.282  -2.051  0.00  0.00    -0.267 OA
ATOM     55  C   LIG    1       -2.116  -0.555  -0.841  0.00  0.00    +0.062 A 
ATOM     56  C   LIG    1       -2.948  -0.216   0.397  0.00  0.00    +0.273 C 
ATOM     57  O   LIG    1       -2.250  -0.395   1.641  0.00  0.00    -0.457 OA
ATOM     58  C   LIG    1       -0.909  -0.157   1.776  0.00  0.00    +0.357 C 
ATOM     59  O   LIG    1       -0.455  -0.272   2.914  0.00  0.00    -0.246 OA
BRANCH  37  61
ATOM     60  C   LIG    1        0.777   2.455   1.494  0.00  0.00    +0.009 C 
ATOM     61  C   LIG    1        0.059   1.718   0.342  0.00  0.00    +0.061 C 
ENDBRANCH  37  61
BRANCH  47  62
ATOM     62  O   LIG    1        2.582  -3.977  -9.594  0.00  0.00    -0.507 OA
ATOM     63  H   LIG    1        1.871  -4.372 -10.103  0.00  0.00    +0.292 HD
ENDBRANCH  47  62
BRANCH  46  64
ATOM     64  C   LIG    1       -0.236  -4.034  -8.996  0.00  0.00    -0.039 C 
BRANCH  64  65
ATOM     65  N   LIG    1       -0.585  -3.192 -10.243  0.00  0.00    +0.379 N 
ATOM     66  H   LIG    1        0.287  -2.962 -10.699  0.00  0.00    -0.082 HD
ATOM     67  C   LIG    1       -1.429  -3.991 -11.255  0.00  0.00    -0.096 C 
ATOM     68  C   LIG    1       -1.270  -1.857  -9.886  0.00  0.00    -0.096 C 
ENDBRANCH  64  65
ENDBRANCH  46  64
ENDBRANCH  36  37
ENDBRANCH   1  36
TORSDOF 17
