REMARK  Name = DB17161
REMARK                            x       y       z     vdW  Elec       q    Type
REMARK                         _______ _______ _______ _____ _____    ______ ____
ROOT
ATOM      1  CA  PHE A  1       -4.007  -3.237   3.958  0.00  0.00    +0.169 C 
ATOM      2  N   PHE A  1       -3.274  -2.841   5.164  0.00  0.00    -0.302 N 
ATOM      3  H   PHE A  1       -2.626  -3.545   5.491  0.00  0.00    +0.150 HD
ATOM      4  C   PHE A  1       -3.320  -1.684   5.847  0.00  0.00    +0.237 C 
ATOM      5  O   PHE A  1       -2.584  -1.493   6.815  0.00  0.00    -0.274 OA
ATOM      6  CA  PHE A  1       -4.308  -0.566   5.427  0.00  0.00    +0.187 C 
ATOM      7  N   PHE A  1       -3.587   0.705   5.411  0.00  0.00    -0.300 N 
ATOM      8  H   PHE A  1       -3.220   1.002   6.303  0.00  0.00    +0.150 HD
ATOM      9  C   PHE A  1       -3.344   1.449   4.321  0.00  0.00    +0.234 C 
ATOM     10  O   PHE A  1       -3.744   1.179   3.187  0.00  0.00    -0.274 OA
ATOM     11  CA  PHE A  1       -2.510   2.716   4.570  0.00  0.00    +0.159 C 
ATOM     12  N   PHE A  1       -2.114   3.324   3.301  0.00  0.00    -0.302 N 
ATOM     13  H   PHE A  1       -2.726   3.135   2.520  0.00  0.00    +0.150 HD
ATOM     14  C   PHE A  1       -1.052   4.124   3.123  0.00  0.00    +0.234 C 
ATOM     15  O   PHE A  1       -0.232   4.405   3.999  0.00  0.00    -0.274 OA
ATOM     16  CA  PHE A  1       -0.939   4.750   1.729  0.00  0.00    +0.163 C 
ATOM     17  N   PHE A  1        0.466   4.897   1.345  0.00  0.00    -0.302 N 
ATOM     18  H   PHE A  1        1.055   5.274   2.074  0.00  0.00    +0.150 HD
ATOM     19  C   PHE A  1        1.056   4.567   0.180  0.00  0.00    +0.234 C 
ATOM     20  O   PHE A  1        2.264   4.721   0.014  0.00  0.00    -0.274 OA
ATOM     21  CA  PHE A  1        0.218   3.968  -0.967  0.00  0.00    +0.163 C 
ATOM     22  N   PHE A  1        0.176   2.516  -0.807  0.00  0.00    -0.302 N 
ATOM     23  H   PHE A  1        1.073   2.056  -0.862  0.00  0.00    +0.150 HD
ATOM     24  C   PHE A  1       -0.932   1.761  -0.700  0.00  0.00    +0.235 C 
ATOM     25  O   PHE A  1       -2.074   2.217  -0.631  0.00  0.00    -0.274 OA
ATOM     26  CA  PHE A  1       -0.750   0.230  -0.714  0.00  0.00    +0.169 C 
ATOM     27  CB  PHE A  1       -1.239  -0.422   0.595  0.00  0.00    +0.112 C 
ATOM     28  SG  PHE A  1       -1.340  -2.233   0.502  0.00  0.00    -0.091 S 
ATOM     29  SG  PHE A  1       -1.623  -2.848   2.421  0.00  0.00    -0.091 S 
ATOM     30  CB  PHE A  1       -3.394  -2.569   2.704  0.00  0.00    +0.112 C 
ENDROOT
BRANCH   1  33
ATOM     31  N   PHE A  1       -4.956  -5.266   2.998  0.00  0.00    -0.306 N 
ATOM     32  H   PHE A  1       -5.563  -4.619   2.515  0.00  0.00    +0.149 HD
ATOM     33  C   PHE A  1       -4.023  -4.769   3.827  0.00  0.00    +0.235 C 
ATOM     34  O   PHE A  1       -3.206  -5.455   4.444  0.00  0.00    -0.274 OA
BRANCH  31  35
ATOM     35  CA  PHE A  1       -5.129  -6.688   2.656  0.00  0.00    +0.126 C 
BRANCH  35  37
ATOM     36  CG2 PHE A  1       -6.290  -8.913   3.341  0.00  0.00    +0.039 C 
ATOM     37  CB  PHE A  1       -6.186  -7.392   3.561  0.00  0.00    +0.134 C 
BRANCH  37  38
ATOM     38  OG1 PHE A  1       -5.903  -7.195   4.935  0.00  0.00    -0.390 OA
ATOM     39  HG1 PHE A  1       -5.758  -6.257   5.084  0.00  0.00    +0.210 HD
ENDBRANCH  37  38
ENDBRANCH  35  37
BRANCH  35  40
ATOM     40  C   PHE A  1       -5.461  -6.845   1.149  0.00  0.00    +0.180 C 
BRANCH  40  41
ATOM     41  O   PHE A  1       -4.577  -6.114   0.318  0.00  0.00    -0.393 OA
ATOM     42  H   PHE A  1       -4.812  -6.275  -0.599  0.00  0.00    +0.209 HD
ENDBRANCH  40  41
ENDBRANCH  35  40
ENDBRANCH  31  35
ENDBRANCH   1  33
BRANCH  26  43
ATOM     43  N   PHE A  1        0.649  -0.151  -0.929  0.00  0.00    -0.302 N 
ATOM     44  H   PHE A  1        1.299   0.193  -0.238  0.00  0.00    +0.150 HD
ATOM     45  C   PHE A  1        1.125  -0.882  -1.953  0.00  0.00    +0.234 C 
ATOM     46  O   PHE A  1        0.408  -1.355  -2.834  0.00  0.00    -0.274 OA
BRANCH  45  47
ATOM     47  CA  PHE A  1        2.660  -1.130  -1.984  0.00  0.00    +0.163 C 
BRANCH  47  48
ATOM     48  N   PHE A  1        3.439  -0.078  -1.302  0.00  0.00    -0.300 N 
ATOM     49  H   PHE A  1        3.849  -0.353  -0.422  0.00  0.00    +0.150 HD
ATOM     50  C   UNK A  0        3.618   1.191  -1.724  0.00  0.00    +0.246 C 
ATOM     51  O   UNK A  0        3.190   1.608  -2.801  0.00  0.00    -0.270 OA
BRANCH  50  52
ATOM     52  C   UNK A  0        4.387   2.108  -0.802  0.00  0.00    +0.055 A 
ATOM     53  C   UNK A  0        4.553   1.832   0.565  0.00  0.00    +0.018 A 
ATOM     54  C   UNK A  0        5.244   2.730   1.380  0.00  0.00    +0.045 A 
ATOM     55  C   UNK A  0        5.768   3.897   0.808  0.00  0.00    +0.132 A 
ATOM     56  N   UNK A  0        5.618   4.183  -0.509  0.00  0.00    -0.239 NA
ATOM     57  C   UNK A  0        4.939   3.302  -1.288  0.00  0.00    +0.126 A 
BRANCH  55  58
ATOM     58  N   UNK A  0        6.456   4.872   1.540  0.00  0.00    -0.268 N 
ATOM     59  H   UNK A  0        7.049   5.537   1.064  0.00  0.00    +0.167 HD
BRANCH  58  60
ATOM     60  N   UNK A  0        6.890   4.654   2.898  0.00  0.00    -0.255 NA
ATOM     61  H   UNK A  0        6.689   5.492   3.427  0.00  0.00    +0.140 HD
ATOM     62  H   UNK A  0        7.883   4.467   2.882  0.00  0.00    +0.140 HD
ENDBRANCH  58  60
ENDBRANCH  55  58
ENDBRANCH  50  52
ENDBRANCH  47  48
BRANCH  47  63
ATOM     63  CB  PHE A  1        3.258  -1.426  -3.393  0.00  0.00    +0.067 C 
BRANCH  63  64
ATOM     64  CG  PHE A  1        3.018  -2.827  -3.936  0.00  0.00    -0.045 A 
ATOM     65  CD2 PHE A  1        1.993  -3.071  -4.875  0.00  0.00    +0.004 A 
ATOM     66  CE2 PHE A  1        1.737  -4.366  -5.304  0.00  0.00    +0.000 A 
ATOM     67  CZ  PHE A  1        2.473  -5.430  -4.797  0.00  0.00    +0.000 A 
ATOM     68  CE1 PHE A  1        3.466  -5.209  -3.851  0.00  0.00    +0.000 A 
ATOM     69  CD1 PHE A  1        3.737  -3.921  -3.409  0.00  0.00    +0.004 A 
ENDBRANCH  63  64
ENDBRANCH  47  63
ENDBRANCH  45  47
ENDBRANCH  26  43
BRANCH   6  70
ATOM     70  CB  PHE A  1       -5.503  -0.492   6.423  0.00  0.00    +0.141 C 
ATOM     71  CG2 PHE A  1       -6.415  -1.731   6.383  0.00  0.00    +0.040 C 
BRANCH  70  72
ATOM     72  OG1 PHE A  1       -5.087  -0.325   7.767  0.00  0.00    -0.390 OA
ATOM     73  HG1 PHE A  1       -4.615  -1.115   8.042  0.00  0.00    +0.210 HD
ENDBRANCH  70  72
ENDBRANCH   6  70
BRANCH  11  74
ATOM     74  CB  PHE A  1       -3.249   3.765   5.440  0.00  0.00    +0.032 C 
BRANCH  74  75
ATOM     75  CG  PHE A  1       -4.577   4.282   4.853  0.00  0.00    +0.000 C 
BRANCH  75  76
ATOM     76  CD  PHE A  1       -5.223   5.369   5.730  0.00  0.00    -0.019 C 
BRANCH  76  77
ATOM     77  CE  PHE A  1       -6.563   5.900   5.188  0.00  0.00    -0.086 C 
BRANCH  77  78
ATOM     78  NZ  PHE A  1       -6.405   6.681   3.946  0.00  0.00    +0.378 N 
ATOM     79  HZ1 PHE A  1       -5.805   7.475   4.120  0.00  0.00    -0.090 HD
ATOM     80  HZ2 PHE A  1       -5.994   6.100   3.230  0.00  0.00    -0.090 HD
ATOM     81  HZ3 PHE A  1       -7.309   7.007   3.634  0.00  0.00    -0.090 HD
ENDBRANCH  77  78
ENDBRANCH  76  77
ENDBRANCH  75  76
ENDBRANCH  74  75
ENDBRANCH  11  74
BRANCH  16  82
ATOM     82  CB  PHE A  1       -1.642   6.122   1.706  0.00  0.00    +0.069 C 
BRANCH  82  83
ATOM     83  CG  PHE A  1       -1.772   6.780   0.365  0.00  0.00    -0.020 A 
ATOM     84  CD2 PHE A  1       -2.725   6.482  -0.701  0.00  0.00    +0.003 A 
ATOM     85  CE3 PHE A  1       -3.789   5.561  -0.853  0.00  0.00    +0.010 A 
ATOM     86  CZ3 PHE A  1       -4.556   5.520  -2.036  0.00  0.00    +0.001 A 
ATOM     87  CH2 PHE A  1       -4.281   6.405  -3.096  0.00  0.00    +0.002 A 
ATOM     88  CZ2 PHE A  1       -3.228   7.331  -2.980  0.00  0.00    +0.026 A 
ATOM     89  CE2 PHE A  1       -2.462   7.354  -1.801  0.00  0.00    +0.047 A 
ATOM     90  NE1 PHE A  1       -1.375   8.099  -1.392  0.00  0.00    -0.360 N 
ATOM     91  HE1 PHE A  1       -0.912   8.813  -1.936  0.00  0.00    +0.165 HD
ATOM     92  CD1 PHE A  1       -0.963   7.748  -0.123  0.00  0.00    +0.087 A 
ENDBRANCH  82  83
ENDBRANCH  16  82
BRANCH  21  93
ATOM     93  CB  PHE A  1        0.813   4.297  -2.357  0.00  0.00    +0.067 C 
BRANCH  93  94
ATOM     94  CG  PHE A  1       -0.050   3.861  -3.530  0.00  0.00    -0.045 A 
ATOM     95  CD2 PHE A  1       -0.968   4.765  -4.102  0.00  0.00    +0.007 A 
ATOM     96  CE2 PHE A  1       -1.790   4.362  -5.172  0.00  0.00    +0.045 A 
ATOM     97  CZ  PHE A  1       -1.695   3.050  -5.678  0.00  0.00    +0.117 A 
ATOM     98  CE1 PHE A  1       -0.774   2.145  -5.115  0.00  0.00    +0.045 A 
ATOM     99  CD1 PHE A  1        0.047   2.550  -4.045  0.00  0.00    +0.007 A 
BRANCH  97 100
ATOM    100  OH  PHE A  1       -2.494   2.656  -6.711  0.00  0.00    -0.507 OA
ATOM    101  HH  PHE A  1       -3.087   3.347  -7.012  0.00  0.00    +0.292 HD
ENDBRANCH  97 100
ENDBRANCH  93  94
ENDBRANCH  21  93
TORSDOF 26
