REMARK  Name = DB17816
REMARK                            x       y       z     vdW  Elec       q    Type
REMARK                         _______ _______ _______ _____ _____    ______ ____
ROOT
ATOM      1  C   LIG    1       -0.528  -0.781  -1.143  0.00  0.00    +0.158 A 
ATOM      2  N   LIG    1       -0.727  -2.168  -1.048  0.00  0.00    -0.260 N 
ATOM      3  C   LIG    1       -1.113  -3.001  -2.097  0.00  0.00    +0.284 A 
ATOM      4  O   LIG    1       -1.296  -4.217  -1.977  0.00  0.00    -0.265 OA
ATOM      5  C   LIG    1       -1.262  -2.264  -3.356  0.00  0.00    +0.147 A 
ATOM      6  C   LIG    1       -1.618  -2.639  -4.660  0.00  0.00    +0.084 A 
ATOM      7  C   LIG    1       -1.582  -1.472  -5.434  0.00  0.00    +0.041 A 
ATOM      8  C   LIG    1       -1.215  -0.419  -4.617  0.00  0.00    +0.114 A 
ATOM      9  N   LIG    1       -1.018  -0.901  -3.349  0.00  0.00    -0.232 N 
ATOM     10  N   LIG    1       -0.649  -0.147  -2.261  0.00  0.00    -0.151 NA
ENDROOT
BRANCH   2  11
ATOM     11  C   LIG    1       -0.462  -2.832   0.175  0.00  0.00    +0.051 A 
ATOM     12  C   LIG    1       -1.504  -3.073   1.079  0.00  0.00    +0.026 A 
ATOM     13  C   LIG    1       -1.232  -3.704   2.290  0.00  0.00    +0.002 A 
ATOM     14  C   LIG    1        0.072  -4.090   2.592  0.00  0.00    +0.000 A 
ATOM     15  C   LIG    1        1.112  -3.855   1.695  0.00  0.00    +0.002 A 
ATOM     16  C   LIG    1        0.847  -3.226   0.482  0.00  0.00    +0.026 A 
ENDBRANCH   2  11
BRANCH   1  18
ATOM     17  C   LIG    1       -0.817   1.429   0.178  0.00  0.00    +0.036 C 
ATOM     18  C   LIG    1       -0.151   0.035   0.119  0.00  0.00    +0.137 C 
BRANCH  18  19
ATOM     19  N   LIG    1        1.309   0.125   0.096  0.00  0.00    -0.318 N 
ATOM     20  H   LIG    1        1.764   0.162  -0.805  0.00  0.00    +0.148 HD
BRANCH  19  21
ATOM     21  C   LIG    1        2.108   0.134   1.260  0.00  0.00    +0.142 A 
ATOM     22  C   LIG    1        3.521   0.114   1.171  0.00  0.00    +0.131 A 
ATOM     23  C   LIG    1        4.234   0.107   2.392  0.00  0.00    +0.139 A 
ATOM     24  N   LIG    1        3.607   0.118   3.595  0.00  0.00    -0.220 NA
ATOM     25  C   LIG    1        2.255   0.136   3.576  0.00  0.00    +0.225 A 
ATOM     26  N   LIG    1        1.477   0.143   2.469  0.00  0.00    -0.219 NA
BRANCH  23  27
ATOM     27  N   LIG    1        5.631   0.086   2.456  0.00  0.00    -0.342 N 
ATOM     28  H   LIG    1        6.083   0.081   3.359  0.00  0.00    +0.144 HD
ATOM     29  H   LIG    1        6.170   0.079   1.602  0.00  0.00    +0.144 HD
ENDBRANCH  23  27
BRANCH  22  30
ATOM     30  C   LIG    1        4.217   0.089  -0.122  0.00  0.00    +0.106 C 
ATOM     31  N   LIG    1        4.764   0.068  -1.141  0.00  0.00    -0.191 NA
ENDBRANCH  22  30
ENDBRANCH  19  21
ENDBRANCH  18  19
ENDBRANCH   1  18
BRANCH   6  32
ATOM     32  C   LIG    1       -1.961  -3.967  -5.149  0.00  0.00    +0.102 C 
ATOM     33  N   LIG    1       -2.235  -5.022  -5.538  0.00  0.00    -0.191 NA
ENDBRANCH   6  32
TORSDOF 7
