REMARK  Name = DB17689
REMARK                            x       y       z     vdW  Elec       q    Type
REMARK                         _______ _______ _______ _____ _____    ______ ____
ROOT
ATOM      1  C   LIG    1        1.565  -0.255  -0.094  0.00  0.00    +0.188 C 
ENDROOT
BRANCH   1   2
ATOM      2  C   LIG    1        0.028  -0.064  -0.269  0.00  0.00    +0.215 C 
BRANCH   2   3
ATOM      3  C   LIG    1       -0.453  -0.518  -1.663  0.00  0.00    +0.257 C 
ATOM      4  O   LIG    1       -0.825   0.281  -2.522  0.00  0.00    -0.298 OA
ENDBRANCH   2   3
BRANCH   2   5
ATOM      5  O   LIG    1       -0.280   1.316  -0.044  0.00  0.00    -0.336 OA
BRANCH   5   6
ATOM      6  C   LIG    1       -1.609   1.634   0.284  0.00  0.00    +0.282 C 
ATOM      7  C   LIG    1       -1.616   2.544   1.527  0.00  0.00    +0.201 C 
ATOM      8  C   LIG    1       -1.047   3.944   1.196  0.00  0.00    +0.179 C 
ATOM      9  C   LIG    1       -1.739   4.538  -0.049  0.00  0.00    +0.174 C 
ATOM     10  C   LIG    1       -1.689   3.507  -1.203  0.00  0.00    +0.149 C 
ATOM     11  C   LIG    1       -2.383   3.978  -2.492  0.00  0.00    +0.041 C 
ATOM     12  O   LIG    1       -2.262   2.254  -0.798  0.00  0.00    -0.343 OA
BRANCH   7  13
ATOM     13  O   LIG    1       -0.963   1.920   2.619  0.00  0.00    -0.384 OA
ATOM     14  H   LIG    1       -0.016   1.950   2.463  0.00  0.00    +0.210 HD
ENDBRANCH   7  13
BRANCH   8  15
ATOM     15  O   LIG    1       -1.089   4.823   2.307  0.00  0.00    -0.386 OA
ATOM     16  H   LIG    1       -0.929   4.314   3.105  0.00  0.00    +0.210 HD
ENDBRANCH   8  15
BRANCH   9  17
ATOM     17  O   LIG    1       -3.067   4.963   0.221  0.00  0.00    -0.387 OA
ATOM     18  H   LIG    1       -3.371   5.500  -0.514  0.00  0.00    +0.210 HD
ENDBRANCH   9  17
ENDBRANCH   5   6
ENDBRANCH   2   5
ENDBRANCH   1   2
BRANCH   1  19
ATOM     19  C   LIG    1        2.004  -1.757  -0.040  0.00  0.00    +0.177 C 
BRANCH  19  20
ATOM     20  O   LIG    1        3.400  -1.887  -0.255  0.00  0.00    -0.386 OA
ATOM     21  H   LIG    1        3.628  -1.434  -1.070  0.00  0.00    +0.210 HD
ENDBRANCH  19  20
BRANCH  19  22
ATOM     22  C   LIG    1        1.549  -2.568   1.209  0.00  0.00    +0.171 C 
BRANCH  22  23
ATOM     23  O   LIG    1        2.123  -2.043   2.395  0.00  0.00    -0.387 OA
ATOM     24  H   LIG    1        3.079  -2.101   2.319  0.00  0.00    +0.210 HD
ENDBRANCH  22  23
BRANCH  22  25
ATOM     25  C   LIG    1        1.884  -4.076   1.116  0.00  0.00    +0.189 C 
BRANCH  25  26
ATOM     26  O   LIG    1        1.213  -4.814   2.118  0.00  0.00    -0.392 OA
ATOM     27  H   LIG    1        1.565  -4.554   2.973  0.00  0.00    +0.210 HD
ENDBRANCH  25  26
ENDBRANCH  22  25
ENDBRANCH  19  22
ENDBRANCH   1  19
BRANCH   1  28
ATOM     28  O   LIG    1        1.940   0.475   1.083  0.00  0.00    -0.340 OA
BRANCH  28  29
ATOM     29  C   LIG    1        3.245   0.990   1.155  0.00  0.00    +0.274 C 
ATOM     30  C   LIG    1        3.428   1.668   2.528  0.00  0.00    +0.160 C 
ATOM     31  C   LIG    1        2.678   3.026   2.573  0.00  0.00    +0.171 C 
ATOM     32  C   LIG    1        3.006   3.898   1.344  0.00  0.00    +0.176 C 
ATOM     33  C   LIG    1        2.779   3.070   0.057  0.00  0.00    +0.178 C 
ATOM     34  O   LIG    1        3.557   1.867   0.094  0.00  0.00    -0.341 OA
BRANCH  30  35
ATOM     35  N   LIG    1        3.143   0.765   3.651  0.00  0.00    -0.305 N 
ATOM     36  H   LIG    1        2.362   0.138   3.518  0.00  0.00    +0.149 HD
ATOM     37  C   LIG    1        3.830   0.679   4.803  0.00  0.00    +0.210 C 
ATOM     38  O   LIG    1        4.813   1.371   5.070  0.00  0.00    -0.276 OA
ATOM     39  C   LIG    1        3.333  -0.350   5.812  0.00  0.00    +0.109 C 
ENDBRANCH  30  35
BRANCH  31  40
ATOM     40  O   LIG    1        2.864   3.727   3.791  0.00  0.00    -0.387 OA
ATOM     41  H   LIG    1        2.028   3.755   4.262  0.00  0.00    +0.210 HD
ENDBRANCH  31  40
BRANCH  32  42
ATOM     42  O   LIG    1        4.314   4.447   1.399  0.00  0.00    -0.387 OA
ATOM     43  H   LIG    1        4.940   3.732   1.531  0.00  0.00    +0.210 HD
ENDBRANCH  32  42
BRANCH  33  44
ATOM     44  C   LIG    1        3.067   3.825  -1.258  0.00  0.00    +0.190 C 
BRANCH  44  45
ATOM     45  O   LIG    1        2.147   4.883  -1.446  0.00  0.00    -0.392 OA
ATOM     46  H   LIG    1        2.362   5.334  -2.266  0.00  0.00    +0.210 HD
ENDBRANCH  44  45
ENDBRANCH  33  44
ENDBRANCH  28  29
ENDBRANCH   1  28
TORSDOF 20
