REMARK  Name = DB17033
REMARK                            x       y       z     vdW  Elec       q    Type
REMARK                         _______ _______ _______ _____ _____    ______ ____
ROOT
ATOM      1  C   LIG    1        1.488   1.482   1.937  0.00  0.00    +0.245 C 
ATOM      2  N   LIG    1        1.716   2.795   2.170  0.00  0.00    -0.303 N 
ATOM      3  H   LIG    1        2.410   3.236   1.584  0.00  0.00    +0.150 HD
ATOM      4  O   LIG    1        0.746   0.762   2.606  0.00  0.00    -0.270 OA
ENDROOT
BRANCH   2   5
ATOM      5  C   LIG    1        1.135   3.644   3.131  0.00  0.00    +0.064 C 
ATOM      6  C   LIG    1       -0.044   3.349   3.838  0.00  0.00    +0.031 C 
ATOM      7  C   LIG    1       -0.573   4.260   4.795  0.00  0.00    +0.026 C 
ATOM      8  C   LIG    1       -1.764   4.019   5.552  0.00  0.00    +0.049 C 
ATOM      9  C   LIG    1       -2.193   4.979   6.472  0.00  0.00    +0.040 C 
ATOM     10  C   LIG    1       -1.474   6.159   6.649  0.00  0.00    +0.040 C 
ATOM     11  C   LIG    1       -1.893   7.234   7.632  0.00  0.00    +0.030 C 
ATOM     12  N   LIG    1       -0.362   6.370   5.923  0.00  0.00    -0.301 NA
ATOM     13  H   LIG    1        0.137   7.234   6.072  0.00  0.00    +0.123 HD
ATOM     14  C   LIG    1        0.137   5.483   4.998  0.00  0.00    +0.051 C 
ATOM     15  C   LIG    1        1.309   5.781   4.274  0.00  0.00    +0.022 C 
ATOM     16  C   LIG    1        1.788   4.859   3.349  0.00  0.00    +0.026 C 
BRANCH   8  17
ATOM     17  N   LIG    1       -2.522   2.854   5.411  0.00  0.00    -0.322 NA
ATOM     18  H   LIG    1       -3.352   2.728   5.974  0.00  0.00    +0.119 HD
ATOM     19  H   LIG    1       -2.229   2.145   4.754  0.00  0.00    +0.119 HD
ENDBRANCH   8  17
ENDBRANCH   2   5
BRANCH   1  21
ATOM     20  C   LIG    1        1.599   0.106  -0.223  0.00  0.00    +0.002 A 
ATOM     21  C   LIG    1        2.235   0.915   0.751  0.00  0.00    +0.043 A 
ATOM     22  C   LIG    1        3.605   1.191   0.612  0.00  0.00    +0.013 A 
ATOM     23  C   LIG    1        4.335   0.678  -0.458  0.00  0.00    +0.001 A 
ATOM     24  C   LIG    1        3.708  -0.120  -1.409  0.00  0.00    +0.000 A 
ATOM     25  C   LIG    1        2.350  -0.402  -1.291  0.00  0.00    +0.008 A 
BRANCH  20  26
ATOM     26  C   LIG    1        0.105  -0.223  -0.183  0.00  0.00    +0.265 C 
BRANCH  26  27
ATOM     27  O   LIG    1       -0.646   0.990  -0.221  0.00  0.00    -0.487 OA
BRANCH  27  31
ATOM     28  C   LIG    1       -4.788   1.063   0.311  0.00  0.00    -0.047 A 
ATOM     29  C   LIG    1       -4.140  -0.172   0.281  0.00  0.00    +0.007 A 
ATOM     30  C   LIG    1       -2.760  -0.232   0.106  0.00  0.00    +0.046 A 
ATOM     31  C   LIG    1       -2.015   0.949  -0.040  0.00  0.00    +0.121 A 
ATOM     32  C   LIG    1       -2.672   2.180  -0.009  0.00  0.00    +0.046 A 
ATOM     33  C   LIG    1       -4.052   2.240   0.166  0.00  0.00    +0.007 A 
BRANCH  28  35
ATOM     34  C   LIG    1       -7.054   1.189  -0.839  0.00  0.00    +0.009 C 
ATOM     35  C   LIG    1       -6.297   1.129   0.495  0.00  0.00    +0.032 C 
ENDBRANCH  28  35
ENDBRANCH  27  31
ENDBRANCH  26  27
ENDBRANCH  20  26
ENDBRANCH   1  21
TORSDOF 7
