REMARK  Name = DB17756
REMARK                            x       y       z     vdW  Elec       q    Type
REMARK                         _______ _______ _______ _____ _____    ______ ____
ROOT
ATOM      1  C   LIG    1       -3.102   1.461   0.112  0.00  0.00    +0.147 A 
ATOM      2  C   LIG    1       -2.037   0.529   0.109  0.00  0.00    +0.147 A 
ATOM      3  N   LIG    1       -2.009  -0.787   0.367  0.00  0.00    -0.231 NA
ATOM      4  C   LIG    1       -0.748  -1.115   0.234  0.00  0.00    +0.203 A 
ATOM      5  N   LIG    1        0.047  -0.090  -0.134  0.00  0.00    -0.288 N 
ATOM      6  C   LIG    1       -0.773   1.006  -0.196  0.00  0.00    +0.167 A 
ATOM      7  N   LIG    1       -0.464   2.297  -0.476  0.00  0.00    -0.216 NA
ATOM      8  C   LIG    1       -1.550   3.085  -0.442  0.00  0.00    +0.225 A 
ATOM      9  N   LIG    1       -2.823   2.761  -0.175  0.00  0.00    -0.219 NA
ENDROOT
BRANCH   5  10
ATOM     10  C   LIG    1        1.548  -0.131  -0.342  0.00  0.00    +0.222 C 
ATOM     11  O   LIG    1        2.213   0.454   0.736  0.00  0.00    -0.351 OA
ATOM     12  C   LIG    1        3.494   0.954   0.357  0.00  0.00    +0.146 C 
ATOM     13  C   LIG    1        3.556   0.665  -1.146  0.00  0.00    +0.038 C 
ATOM     14  C   LIG    1        2.107   0.553  -1.578  0.00  0.00    +0.057 C 
BRANCH  12  15
ATOM     15  C   LIG    1        3.547   2.443   0.748  0.00  0.00    +0.187 C 
BRANCH  15  16
ATOM     16  O   LIG    1        4.860   2.949   0.619  0.00  0.00    -0.392 OA
ATOM     17  H   LIG    1        4.860   3.872   0.882  0.00  0.00    +0.210 HD
ENDBRANCH  15  16
ENDBRANCH  12  15
ENDBRANCH   5  10
BRANCH   1  18
ATOM     18  N   LIG    1       -4.420   1.108   0.399  0.00  0.00    -0.341 N 
ATOM     19  H   LIG    1       -5.135   1.820   0.388  0.00  0.00    +0.144 HD
ATOM     20  H   LIG    1       -4.640   0.146   0.611  0.00  0.00    +0.144 HD
ENDBRANCH   1  18
TORSDOF 4
