REMARK  Name = DB17114
REMARK                            x       y       z     vdW  Elec       q    Type
REMARK                         _______ _______ _______ _____ _____    ______ ____
ROOT
ATOM      1  C   LIG    1        2.262  -2.142  -1.216  0.00  0.00    +0.124 A 
ATOM      2  C   LIG    1        2.607  -3.487  -1.376  0.00  0.00    +0.066 A 
ATOM      3  C   LIG    1        2.822  -3.942  -2.681  0.00  0.00    +0.045 A 
ATOM      4  C   LIG    1        3.204  -5.381  -2.968  0.00  0.00    +0.066 C 
ATOM      5  N   LIG    1        2.703  -3.130  -3.764  0.00  0.00    -0.219 NA
ATOM      6  C   LIG    1        2.360  -1.836  -3.529  0.00  0.00    +0.225 A 
ATOM      7  N   LIG    1        2.140  -1.311  -2.289  0.00  0.00    -0.199 NA
ENDROOT
BRANCH   6   8
ATOM      8  N   LIG    1        2.239  -1.055  -4.692  0.00  0.00    -0.238 N 
ATOM      9  H   LIG    1        2.473  -1.539  -5.546  0.00  0.00    +0.159 HD
ATOM     10  C   LIG    1        1.842   0.231  -4.810  0.00  0.00    +0.310 C 
ATOM     11  N   LIG    1        1.878   0.608  -6.104  0.00  0.00    -0.269 N 
ATOM     12  H   LIG    1        2.087  -0.115  -6.778  0.00  0.00    +0.156 HD
ATOM     13  O   LIG    1        1.487   0.948  -3.872  0.00  0.00    -0.252 OA
BRANCH  11  14
ATOM     14  C   LIG    1        1.602   1.867  -6.669  0.00  0.00    +0.036 A 
ATOM     15  C   LIG    1        1.578   3.075  -5.951  0.00  0.00    +0.044 A 
ATOM     16  C   LIG    1        1.305   4.281  -6.600  0.00  0.00    +0.061 A 
ATOM     17 CL   LIG    1        1.286   5.742  -5.673  0.00  0.00    -0.082 Cl
ATOM     18  C   LIG    1        1.059   4.291  -7.979  0.00  0.00    +0.059 A 
ATOM     19 CL   LIG    1        0.714   5.762  -8.822  0.00  0.00    -0.082 Cl
ATOM     20  C   LIG    1        1.095   3.095  -8.696  0.00  0.00    +0.023 A 
ATOM     21  C   LIG    1        1.369   1.893  -8.047  0.00  0.00    +0.025 A 
ENDBRANCH  11  14
ENDBRANCH   6   8
BRANCH   1  22
ATOM     22  N   LIG    1        2.035  -1.654   0.081  0.00  0.00    -0.329 N 
ATOM     23  H   LIG    1        1.961  -2.318   0.838  0.00  0.00    +0.147 HD
BRANCH  22  24
ATOM     24  C   LIG    1        1.601  -0.280   0.321  0.00  0.00    +0.101 C 
BRANCH  24  25
ATOM     25  C   LIG    1        0.074  -0.113   0.301  0.00  0.00    +0.000 C 
BRANCH  25  26
ATOM     26  C   LIG    1       -0.351   1.353   0.495  0.00  0.00    -0.078 C 
BRANCH  26  28
ATOM     27  C   LIG    1       -2.749   0.803   1.288  0.00  0.00    -0.097 C 
ATOM     28  N   LIG    1       -1.868   1.538   0.256  0.00  0.00    +0.376 N 
ATOM     29  H   LIG    1       -2.073   1.143  -0.652  0.00  0.00    -0.083 HD
ATOM     30  C   LIG    1       -2.240   3.032   0.186  0.00  0.00    -0.097 C 
ENDBRANCH  26  28
ENDBRANCH  25  26
ENDBRANCH  24  25
ENDBRANCH  22  24
ENDBRANCH   1  22
TORSDOF 7
