REMARK  Name = DB17160
REMARK                            x       y       z     vdW  Elec       q    Type
REMARK                         _______ _______ _______ _____ _____    ______ ____
ROOT
ATOM      1  CA  PHE A  1       -4.434  -4.247   2.587  0.00  0.00    +0.169 C 
ATOM      2  N   PHE A  1       -4.090  -3.910   3.973  0.00  0.00    -0.302 N 
ATOM      3  H   PHE A  1       -3.724  -4.694   4.494  0.00  0.00    +0.150 HD
ATOM      4  C   PHE A  1       -4.143  -2.728   4.615  0.00  0.00    +0.237 C 
ATOM      5  O   PHE A  1       -3.744  -2.625   5.775  0.00  0.00    -0.274 OA
ATOM      6  CA  PHE A  1       -4.699  -1.470   3.907  0.00  0.00    +0.187 C 
ATOM      7  N   PHE A  1       -3.681  -0.427   3.997  0.00  0.00    -0.300 N 
ATOM      8  H   PHE A  1       -2.963  -0.587   4.688  0.00  0.00    +0.150 HD
ATOM      9  C   PHE A  1       -3.667   0.713   3.291  0.00  0.00    +0.234 C 
ATOM     10  O   PHE A  1       -4.492   1.003   2.424  0.00  0.00    -0.274 OA
ATOM     11  CA  PHE A  1       -2.533   1.688   3.655  0.00  0.00    +0.159 C 
ATOM     12  N   PHE A  1       -2.530   2.845   2.760  0.00  0.00    -0.302 N 
ATOM     13  H   PHE A  1       -3.410   3.051   2.307  0.00  0.00    +0.150 HD
ATOM     14  C   PHE A  1       -1.461   3.617   2.514  0.00  0.00    +0.234 C 
ATOM     15  O   PHE A  1       -0.344   3.430   2.999  0.00  0.00    -0.274 OA
ATOM     16  CA  PHE A  1       -1.707   4.816   1.588  0.00  0.00    +0.163 C 
ATOM     17  N   PHE A  1       -0.494   5.154   0.838  0.00  0.00    -0.302 N 
ATOM     18  H   PHE A  1        0.119   5.792   1.323  0.00  0.00    +0.150 HD
ATOM     19  C   PHE A  1       -0.055   4.661  -0.335  0.00  0.00    +0.234 C 
ATOM     20  O   PHE A  1        1.058   4.957  -0.766  0.00  0.00    -0.274 OA
ATOM     21  CA  PHE A  1       -0.937   3.710  -1.171  0.00  0.00    +0.163 C 
ATOM     22  N   PHE A  1       -0.471   2.341  -0.978  0.00  0.00    -0.302 N 
ATOM     23  H   PHE A  1        0.475   2.153  -1.275  0.00  0.00    +0.150 HD
ATOM     24  C   PHE A  1       -1.199   1.348  -0.440  0.00  0.00    +0.235 C 
ATOM     25  O   PHE A  1       -2.369   1.472  -0.076  0.00  0.00    -0.274 OA
ATOM     26  CA  PHE A  1       -0.491  -0.011  -0.291  0.00  0.00    +0.169 C 
ATOM     27  CB  PHE A  1       -1.209  -0.986   0.670  0.00  0.00    +0.112 C 
ATOM     28  SG  PHE A  1       -0.767  -2.734   0.461  0.00  0.00    -0.091 S 
ATOM     29  SG  PHE A  1       -1.670  -3.668   2.028  0.00  0.00    -0.091 S 
ATOM     30  CB  PHE A  1       -3.429  -3.634   1.578  0.00  0.00    +0.112 C 
ENDROOT
BRANCH   1  33
ATOM     31  N   PHE A  1       -5.272  -6.205   1.402  0.00  0.00    -0.306 N 
ATOM     32  H   PHE A  1       -5.718  -5.519   0.810  0.00  0.00    +0.149 HD
ATOM     33  C   PHE A  1       -4.516  -5.773   2.426  0.00  0.00    +0.235 C 
ATOM     34  O   PHE A  1       -3.902  -6.513   3.196  0.00  0.00    -0.274 OA
BRANCH  31  35
ATOM     35  CA  PHE A  1       -5.495  -7.614   1.037  0.00  0.00    +0.126 C 
BRANCH  35  37
ATOM     36  CG2 PHE A  1       -6.660  -8.375   3.237  0.00  0.00    +0.039 C 
ATOM     37  CB  PHE A  1       -6.758  -8.232   1.707  0.00  0.00    +0.134 C 
BRANCH  37  38
ATOM     38  OG1 PHE A  1       -7.915  -7.471   1.412  0.00  0.00    -0.390 OA
ATOM     39  HG1 PHE A  1       -7.816  -6.602   1.807  0.00  0.00    +0.210 HD
ENDBRANCH  37  38
ENDBRANCH  35  37
BRANCH  35  40
ATOM     40  C   PHE A  1       -5.524  -7.798  -0.502  0.00  0.00    +0.180 C 
BRANCH  40  41
ATOM     41  O   PHE A  1       -4.369  -7.265  -1.124  0.00  0.00    -0.393 OA
ATOM     42  H   PHE A  1       -4.389  -6.309  -1.044  0.00  0.00    +0.209 HD
ENDBRANCH  40  41
ENDBRANCH  35  40
ENDBRANCH  31  35
ENDBRANCH   1  33
BRANCH  26  43
ATOM     43  N   PHE A  1        0.890   0.189   0.156  0.00  0.00    -0.302 N 
ATOM     44  H   PHE A  1        1.017   0.881   0.880  0.00  0.00    +0.150 HD
ATOM     45  C   PHE A  1        1.962  -0.448  -0.336  0.00  0.00    +0.234 C 
ATOM     46  O   PHE A  1        1.913  -1.311  -1.212  0.00  0.00    -0.274 OA
BRANCH  45  47
ATOM     47  CA  PHE A  1        3.320  -0.053   0.284  0.00  0.00    +0.163 C 
BRANCH  47  48
ATOM     48  N   PHE A  1        4.126   0.812  -0.586  0.00  0.00    -0.305 N 
ATOM     49  H   PHE A  1        4.297   1.733  -0.212  0.00  0.00    +0.149 HD
ATOM     50  C   UNK A  0        4.606   0.526  -1.815  0.00  0.00    +0.197 C 
ATOM     51  O   UNK A  0        4.483  -0.579  -2.338  0.00  0.00    -0.278 OA
BRANCH  50  52
ATOM     52  C   UNK A  0        5.360   1.623  -2.594  0.00  0.00    +0.019 C 
BRANCH  52  53
ATOM     53  N   UNK A  0        4.842   3.012  -2.318  0.00  0.00    +0.387 N 
ATOM     54  H   UNK A  0        4.811   3.055  -1.310  0.00  0.00    -0.081 HD
ATOM     55  C   UNK A  0        5.854   4.150  -2.646  0.00  0.00    -0.063 C 
ATOM     56  C   UNK A  0        6.479   4.171  -4.075  0.00  0.00    +0.066 C 
ATOM     57  N   UNK A  0        7.310   3.024  -4.483  0.00  0.00    -0.296 NA
ATOM     58  C   UNK A  0        7.688   3.143  -5.905  0.00  0.00    +0.066 C 
ATOM     59  C   UNK A  0        6.532   2.975  -6.923  0.00  0.00    -0.062 C 
ATOM     60  N   UNK A  0        5.702   1.687  -6.679  0.00  0.00    +0.388 N 
ATOM     61  H   UNK A  0        5.588   1.592  -5.679  0.00  0.00    -0.081 HD
ATOM     62  C   UNK A  0        4.280   1.791  -7.298  0.00  0.00    -0.062 C 
ATOM     63  C   UNK A  0        3.362   2.747  -6.495  0.00  0.00    +0.066 C 
ATOM     64  N   UNK A  0        3.298   2.403  -5.067  0.00  0.00    -0.296 NA
ATOM     65  C   UNK A  0        3.075   3.568  -4.201  0.00  0.00    +0.066 C 
ATOM     66  C   UNK A  0        3.361   3.321  -2.700  0.00  0.00    -0.063 C 
BRANCH  57  67
ATOM     67  C   UNK A  0        8.533   2.933  -3.653  0.00  0.00    +0.205 C 
BRANCH  67  68
ATOM     68  C   UNK A  0        9.274   1.569  -3.707  0.00  0.00    +0.319 C 
ATOM     69  O   UNK A  0       10.458   1.580  -3.304  0.00  0.00    -0.250 OA
BRANCH  68  70
ATOM     70  O   UNK A  0        8.674   0.538  -4.093  0.00  0.00    -0.480 OA
ATOM     71  H   UNK A  0        9.124  -0.282  -4.124  0.00  0.00    +0.295 HD
ENDBRANCH  68  70
ENDBRANCH  67  68
ENDBRANCH  57  67
BRANCH  64  72
ATOM     72  C   UNK A  0        2.461   1.216  -4.758  0.00  0.00    +0.205 C 
BRANCH  72  73
ATOM     73  C   UNK A  0        0.913   1.390  -4.739  0.00  0.00    +0.319 C 
ATOM     74  O   UNK A  0        0.358   2.252  -5.458  0.00  0.00    -0.250 OA
BRANCH  73  75
ATOM     75  O   UNK A  0        0.285   0.607  -3.992  0.00  0.00    -0.480 OA
ATOM     76  H   UNK A  0       -0.649   0.660  -3.936  0.00  0.00    +0.295 HD
ENDBRANCH  73  75
ENDBRANCH  72  73
ENDBRANCH  64  72
BRANCH  60  77
ATOM     77  C   UNK A  0        6.462   0.418  -7.166  0.00  0.00    +0.044 C 
BRANCH  77  78
ATOM     78  C   UNK A  0        6.037  -0.851  -6.385  0.00  0.00    +0.288 C 
ATOM     79  O   UNK A  0        6.565  -1.916  -6.773  0.00  0.00    -0.253 OA
BRANCH  78  80
ATOM     80  O   UNK A  0        5.224  -0.781  -5.435  0.00  0.00    -0.482 OA
ATOM     81  H   UNK A  0        4.976  -1.557  -4.972  0.00  0.00    +0.295 HD
ENDBRANCH  78  80
ENDBRANCH  77  78
ENDBRANCH  60  77
ENDBRANCH  52  53
ENDBRANCH  50  52
ENDBRANCH  47  48
BRANCH  47  82
ATOM     82  CB  PHE A  1        4.144  -1.256   0.811  0.00  0.00    +0.067 C 
BRANCH  82  83
ATOM     83  CG  PHE A  1        3.390  -2.240   1.692  0.00  0.00    -0.045 A 
ATOM     84  CD2 PHE A  1        2.910  -3.456   1.161  0.00  0.00    +0.004 A 
ATOM     85  CE2 PHE A  1        2.157  -4.311   1.954  0.00  0.00    +0.000 A 
ATOM     86  CZ  PHE A  1        1.847  -3.961   3.262  0.00  0.00    +0.000 A 
ATOM     87  CE1 PHE A  1        2.282  -2.751   3.788  0.00  0.00    +0.000 A 
ATOM     88  CD1 PHE A  1        3.042  -1.885   3.013  0.00  0.00    +0.004 A 
ENDBRANCH  82  83
ENDBRANCH  47  82
ENDBRANCH  45  47
ENDBRANCH  26  43
BRANCH   6  89
ATOM     89  CB  PHE A  1       -6.050  -1.023   4.547  0.00  0.00    +0.141 C 
ATOM     90  CG2 PHE A  1       -7.163  -2.081   4.437  0.00  0.00    +0.040 C 
BRANCH  89  91
ATOM     91  OG1 PHE A  1       -5.916  -0.695   5.920  0.00  0.00    -0.390 OA
ATOM     92  HG1 PHE A  1       -5.680  -1.492   6.403  0.00  0.00    +0.210 HD
ENDBRANCH  89  91
ENDBRANCH   6  89
BRANCH  11  93
ATOM     93  CB  PHE A  1       -2.601   2.165   5.129  0.00  0.00    +0.032 C 
BRANCH  93  94
ATOM     94  CG  PHE A  1       -3.918   2.860   5.530  0.00  0.00    +0.000 C 
BRANCH  94  95
ATOM     95  CD  PHE A  1       -3.894   3.367   6.982  0.00  0.00    -0.019 C 
BRANCH  95  96
ATOM     96  CE  PHE A  1       -5.211   4.019   7.444  0.00  0.00    -0.086 C 
BRANCH  96  97
ATOM     97  NZ  PHE A  1       -5.490   5.292   6.752  0.00  0.00    +0.378 N 
ATOM     98  HZ1 PHE A  1       -4.738   5.944   6.924  0.00  0.00    -0.090 HD
ATOM     99  HZ2 PHE A  1       -5.570   5.126   5.759  0.00  0.00    -0.090 HD
ATOM    100  HZ3 PHE A  1       -6.357   5.681   7.097  0.00  0.00    -0.090 HD
ENDBRANCH  96  97
ENDBRANCH  95  96
ENDBRANCH  94  95
ENDBRANCH  93  94
ENDBRANCH  11  93
BRANCH  16 101
ATOM    101  CB  PHE A  1       -2.144   6.051   2.397  0.00  0.00    +0.069 C 
BRANCH 101 102
ATOM    102  CG  PHE A  1       -2.470   7.262   1.571  0.00  0.00    -0.020 A 
ATOM    103  CD2 PHE A  1       -3.657   7.510   0.756  0.00  0.00    +0.003 A 
ATOM    104  CE3 PHE A  1       -4.850   6.795   0.494  0.00  0.00    +0.010 A 
ATOM    105  CZ3 PHE A  1       -5.843   7.319  -0.359  0.00  0.00    +0.001 A 
ATOM    106  CH2 PHE A  1       -5.667   8.574  -0.974  0.00  0.00    +0.002 A 
ATOM    107  CZ2 PHE A  1       -4.489   9.308  -0.743  0.00  0.00    +0.026 A 
ATOM    108  CE2 PHE A  1       -3.504   8.774   0.107  0.00  0.00    +0.047 A 
ATOM    109  NE1 PHE A  1       -2.266   9.221   0.518  0.00  0.00    -0.360 N 
ATOM    110  HE1 PHE A  1       -1.831  10.088   0.239  0.00  0.00    +0.165 HD
ATOM    111  CD1 PHE A  1       -1.656   8.324   1.370  0.00  0.00    +0.087 A 
ENDBRANCH 101 102
ENDBRANCH  16 101
BRANCH  21 112
ATOM    112  CB  PHE A  1       -0.898   4.046  -2.677  0.00  0.00    +0.067 C 
BRANCH 112 113
ATOM    113  CG  PHE A  1       -1.383   5.445  -3.019  0.00  0.00    -0.045 A 
ATOM    114  CD2 PHE A  1       -0.464   6.457  -3.367  0.00  0.00    +0.007 A 
ATOM    115  CE2 PHE A  1       -0.918   7.760  -3.645  0.00  0.00    +0.045 A 
ATOM    116  CZ  PHE A  1       -2.295   8.054  -3.584  0.00  0.00    +0.117 A 
ATOM    117  CE1 PHE A  1       -3.216   7.043  -3.249  0.00  0.00    +0.045 A 
ATOM    118  CD1 PHE A  1       -2.761   5.742  -2.965  0.00  0.00    +0.007 A 
BRANCH 116 119
ATOM    119  OH  PHE A  1       -2.737   9.318  -3.845  0.00  0.00    -0.507 OA
ATOM    120  HH  PHE A  1       -2.028   9.926  -4.064  0.00  0.00    +0.292 HD
ENDBRANCH 116 119
ENDBRANCH 112 113
ENDBRANCH  21 112
TORSDOF 34
