REMARK  Name = DB17264
REMARK                            x       y       z     vdW  Elec       q    Type
REMARK                         _______ _______ _______ _____ _____    ______ ____
ROOT
ATOM      1  C   LIG    1        1.517  -0.129   0.023  0.00  0.00    +0.069 C 
ATOM      2  C   LIG    1        2.073  -0.145   1.474  0.00  0.00    +0.063 C 
ATOM      3  C   LIG    1        3.596  -0.332   1.455  0.00  0.00    +0.003 A 
ATOM      4  C   LIG    1        4.370  -0.083   2.592  0.00  0.00    +0.011 A 
ATOM      5  C   LIG    1        5.745  -0.297   2.591  0.00  0.00    +0.046 A 
ATOM      6  C   LIG    1        6.381  -0.769   1.445  0.00  0.00    +0.123 A 
ATOM      7  C   LIG    1        5.636  -1.029   0.284  0.00  0.00    +0.033 A 
ATOM      8  C   LIG    1        6.310  -1.541  -0.988  0.00  0.00    +0.051 C 
ATOM      9  C   LIG    1        4.248  -0.814   0.299  0.00  0.00    +0.131 A 
ATOM     10  O   LIG    1        3.584  -1.026  -0.900  0.00  0.00    -0.491 OA
ATOM     11  C   LIG    1        2.176  -1.248  -0.814  0.00  0.00    +0.238 C 
ENDROOT
BRANCH   1  16
ATOM     12  C   LIG    1       -2.070   1.233  -0.123  0.00  0.00    +0.165 A 
ATOM     13  C   LIG    1       -2.812   0.044  -0.156  0.00  0.00    +0.201 A 
ATOM     14  C   LIG    1       -2.180  -1.207  -0.135  0.00  0.00    +0.165 A 
ATOM     15  C   LIG    1       -0.778  -1.253  -0.095  0.00  0.00    +0.053 A 
ATOM     16  C   LIG    1       -0.016  -0.081  -0.064  0.00  0.00    -0.033 A 
ATOM     17  C   LIG    1       -0.669   1.153  -0.073  0.00  0.00    +0.053 A 
BRANCH  12  19
ATOM     18  C   LIG    1       -2.061   3.659  -0.085  0.00  0.00    +0.277 C 
ATOM     19  O   LIG    1       -2.772   2.426  -0.137  0.00  0.00    -0.491 OA
ENDBRANCH  12  19
BRANCH  13  20
ATOM     20  O   LIG    1       -4.183   0.110  -0.202  0.00  0.00    -0.501 OA
ATOM     21  H   LIG    1       -4.508   1.013  -0.216  0.00  0.00    +0.292 HD
ENDBRANCH  13  20
BRANCH  14  22
ATOM     22  O   LIG    1       -2.984  -2.334  -0.149  0.00  0.00    -0.491 OA
ATOM     23  C   LIG    1       -2.384  -3.623  -0.062  0.00  0.00    +0.277 C 
ENDBRANCH  14  22
ENDBRANCH   1  16
BRANCH   2  24
ATOM     24  C   LIG    1        1.365  -1.150   2.402  0.00  0.00    -0.039 A 
ATOM     25  C   LIG    1        0.277  -0.721   3.171  0.00  0.00    +0.008 A 
ATOM     26  C   LIG    1       -0.397  -1.616   3.997  0.00  0.00    +0.045 A 
ATOM     27  C   LIG    1        0.020  -2.944   4.062  0.00  0.00    +0.117 A 
ATOM     28  C   LIG    1        1.110  -3.380   3.312  0.00  0.00    +0.045 A 
ATOM     29  C   LIG    1        1.783  -2.485   2.485  0.00  0.00    +0.008 A 
BRANCH  27  30
ATOM     30  O   LIG    1       -0.646  -3.827   4.869  0.00  0.00    -0.507 OA
ATOM     31  H   LIG    1       -1.382  -3.424   5.336  0.00  0.00    +0.292 HD
ENDBRANCH  27  30
ENDBRANCH   2  24
BRANCH   6  32
ATOM     32  O   LIG    1        7.739  -0.964   1.487  0.00  0.00    -0.506 OA
ATOM     33  H   LIG    1        8.120  -0.747   2.341  0.00  0.00    +0.292 HD
ENDBRANCH   6  32
TORSDOF 7
