REMARK  Name = DB17147
REMARK                            x       y       z     vdW  Elec       q    Type
REMARK                         _______ _______ _______ _____ _____    ______ ____
ROOT
ATOM      1  CA  MET A  1        2.099  -1.474  -0.064  0.00  0.00    +0.036 C 
ENDROOT
BRANCH   1   2
ATOM      2  N   MET A  1        3.597  -1.375   0.024  0.00  0.00    +0.387 N 
ATOM      3  H1  MET A  1        3.944  -0.906  -0.801  0.00  0.00    -0.089 HD
ATOM      4  H2  MET A  1        3.841  -0.844   0.847  0.00  0.00    -0.089 HD
ATOM      5  H3  MET A  1        3.985  -2.305   0.090  0.00  0.00    -0.089 HD
ENDBRANCH   1   2
BRANCH   1   6
ATOM      6  C   MET A  1        1.715  -2.347  -1.319  0.00  0.00    +0.290 C 
ATOM      7  OXT MET A  1        0.547  -2.795  -1.277  0.00  0.00    -0.253 OA
BRANCH   6   8
ATOM      8  O   MET A  1        2.577  -2.505  -2.217  0.00  0.00    -0.482 OA
ATOM      9  H   MET A  1        2.376  -3.019  -2.975  0.00  0.00    +0.295 HD
ENDBRANCH   6   8
ENDBRANCH   1   6
BRANCH   1  10
ATOM     10  CB  MET A  1        1.459  -0.059  -0.108  0.00  0.00    +0.005 C 
BRANCH  10  11
ATOM     11  CG  MET A  1       -0.078   0.000  -0.049  0.00  0.00    +0.068 C 
BRANCH  11  13
ATOM     12  CE  MET A  1       -2.511   1.305   0.139  0.00  0.00    +0.084 C 
ATOM     13  SD  MET A  1       -0.738   1.670   0.199  0.00  0.00    -0.164 S 
ENDBRANCH  11  13
ENDBRANCH  10  11
ENDBRANCH   1  10
TORSDOF 6
