REMARK  Name = DB17884
REMARK                            x       y       z     vdW  Elec       q    Type
REMARK                         _______ _______ _______ _____ _____    ______ ____
ROOT
ATOM      1  C   LIG    1       -1.874  -0.035   1.329  0.00  0.00    +0.138 C 
ATOM      2  C   LIG    1       -0.346  -0.077   0.993  0.00  0.00    +0.169 C 
ATOM      3  C   LIG    1        0.062   0.894  -0.154  0.00  0.00    +0.138 C 
ATOM      4  C   LIG    1       -0.833   0.685  -1.409  0.00  0.00    -0.045 C 
ATOM      5  C   LIG    1       -2.336   0.789  -1.080  0.00  0.00    -0.027 C 
ATOM      6  C   LIG    1       -2.714  -0.215   0.029  0.00  0.00    -0.045 C 
ENDROOT
BRANCH   4   7
ATOM      7  N   LIG    1       -0.487   1.722  -2.494  0.00  0.00    +0.382 N 
ATOM      8  H   LIG    1        0.492   1.657  -2.738  0.00  0.00    -0.090 HD
ATOM      9  H   LIG    1       -1.036   1.558  -3.326  0.00  0.00    -0.090 HD
ATOM     10  H   LIG    1       -0.674   2.658  -2.163  0.00  0.00    -0.090 HD
ENDBRANCH   4   7
BRANCH   6  11
ATOM     11  N   LIG    1       -4.215  -0.069   0.337  0.00  0.00    +0.382 N 
ATOM     12  H   LIG    1       -4.760  -0.247  -0.495  0.00  0.00    -0.090 HD
ATOM     13  H   LIG    1       -4.487  -0.732   1.049  0.00  0.00    -0.090 HD
ATOM     14  H   LIG    1       -4.418   0.865   0.664  0.00  0.00    -0.090 HD
ENDBRANCH   6  11
BRANCH   2  15
ATOM     15  O   LIG    1        0.438   0.205   2.134  0.00  0.00    -0.387 OA
ATOM     16  H   LIG    1        0.289   1.117   2.397  0.00  0.00    +0.210 HD
ENDBRANCH   2  15
BRANCH   1  17
ATOM     17  O   LIG    1       -2.255  -1.068   2.251  0.00  0.00    -0.349 OA
BRANCH  17  20
ATOM     18  C   LIG    1       -4.487  -0.342   4.141  0.00  0.00    +0.107 C 
ATOM     19  O   LIG    1       -3.118   0.107   4.080  0.00  0.00    -0.351 OA
ATOM     20  C   LIG    1       -2.147  -0.811   3.630  0.00  0.00    +0.236 C 
ATOM     21  C   LIG    1       -2.242  -2.133   4.420  0.00  0.00    -0.018 C 
ATOM     22  C   LIG    1       -3.642  -2.749   4.298  0.00  0.00    -0.009 C 
ATOM     23  C   LIG    1       -4.681  -1.737   4.787  0.00  0.00    +0.028 C 
BRANCH  21  24
ATOM     24  N   LIG    1       -1.204  -3.144   3.898  0.00  0.00    +0.383 N 
ATOM     25  H   LIG    1       -0.270  -2.768   3.988  0.00  0.00    -0.089 HD
ATOM     26  H   LIG    1       -1.257  -4.004   4.426  0.00  0.00    -0.089 HD
ATOM     27  H   LIG    1       -1.377  -3.352   2.925  0.00  0.00    -0.089 HD
ENDBRANCH  21  24
BRANCH  18  28
ATOM     28  C   LIG    1       -5.401   0.744   4.779  0.00  0.00    -0.049 C 
ATOM     29  C   LIG    1       -5.071   1.089   6.248  0.00  0.00    -0.012 C 
BRANCH  28  30
ATOM     30  N   LIG    1       -5.330   2.044   3.960  0.00  0.00    +0.381 N 
ATOM     31  H   LIG    1       -5.611   1.875   3.005  0.00  0.00    -0.090 HD
ATOM     32  H   LIG    1       -5.945   2.739   4.359  0.00  0.00    -0.090 HD
ATOM     33  H   LIG    1       -4.387   2.406   3.968  0.00  0.00    -0.090 HD
ENDBRANCH  28  30
ENDBRANCH  18  28
ENDBRANCH  17  20
ENDBRANCH   1  17
BRANCH   3  34
ATOM     34  O   LIG    1        1.441   0.691  -0.500  0.00  0.00    -0.345 OA
BRANCH  34  35
ATOM     35  C   LIG    1        2.270   1.824  -0.504  0.00  0.00    +0.277 C 
ATOM     36  C   LIG    1        3.530   1.524  -1.346  0.00  0.00    +0.159 C 
ATOM     37  C   LIG    1        4.511   0.601  -0.579  0.00  0.00    -0.004 C 
ATOM     38  C   LIG    1        4.837   1.185   0.822  0.00  0.00    +0.077 C 
ATOM     39  C   LIG    1        5.734   0.254   1.671  0.00  0.00    +0.042 C 
ATOM     40  C   LIG    1        3.492   1.425   1.538  0.00  0.00    +0.196 C 
ATOM     41  O   LIG    1        2.570   2.245   0.807  0.00  0.00    -0.346 OA
BRANCH  37  42
ATOM     42  N   LIG    1        5.828   0.463  -1.385  0.00  0.00    +0.383 N 
ATOM     43  H   LIG    1        6.587   0.387  -0.722  0.00  0.00    -0.086 HD
ATOM     44  H   LIG    1        5.981   1.310  -1.915  0.00  0.00    -0.086 HD
ATOM     45  C   LIG    1        5.907  -0.757  -2.315  0.00  0.00    -0.100 C 
ENDBRANCH  37  42
BRANCH  36  46
ATOM     46  O   LIG    1        3.158   1.038  -2.625  0.00  0.00    -0.388 OA
ATOM     47  H   LIG    1        2.978   0.098  -2.554  0.00  0.00    +0.210 HD
ENDBRANCH  36  46
BRANCH  38  48
ATOM     48  O   LIG    1        5.516   2.431   0.742  0.00  0.00    -0.388 OA
ATOM     49  H   LIG    1        5.665   2.759   1.633  0.00  0.00    +0.210 HD
ENDBRANCH  38  48
ENDBRANCH  34  35
ENDBRANCH   3  34
TORSDOF 13
