REMARK  Name = DB17589
REMARK                            x       y       z     vdW  Elec       q    Type
REMARK                         _______ _______ _______ _____ _____    ______ ____
ROOT
ATOM      1  C   LIG    1       -1.363   3.162  -0.335  0.00  0.00    +0.195 A 
ATOM      2  N   LIG    1       -2.641   2.667  -0.490  0.00  0.00    -0.294 N 
ATOM      3  H   LIG    1       -3.386   3.313  -0.704  0.00  0.00    +0.172 HD
ATOM      4  C   LIG    1       -3.013   1.357  -0.378  0.00  0.00    +0.279 A 
ATOM      5  O   LIG    1       -4.174   0.984  -0.529  0.00  0.00    -0.265 OA
ATOM      6  C   LIG    1       -1.876   0.492  -0.064  0.00  0.00    +0.154 A 
ATOM      7  N   LIG    1       -1.735  -0.831   0.141  0.00  0.00    -0.282 N 
ATOM      8  C   LIG    1       -0.444  -1.140   0.432  0.00  0.00    +0.334 A 
ATOM      9  O   LIG    1        0.021  -2.253   0.687  0.00  0.00    -0.246 OA
ATOM     10  N   LIG    1        0.222   0.047   0.375  0.00  0.00    -0.247 N 
ATOM     11  C   LIG    1       -0.661   1.027   0.073  0.00  0.00    +0.172 A 
ATOM     12  N   LIG    1       -0.381   2.364  -0.055  0.00  0.00    -0.196 NA
ENDROOT
BRANCH  10  13
ATOM     13  C1* LIG    1        1.644   0.234   0.597  0.00  0.00    +0.257 C 
ATOM     14  C2* LIG    1        2.230  -0.205   1.935  0.00  0.00    +0.195 C 
ATOM     15  C3* LIG    1        3.712  -0.178   1.560  0.00  0.00    +0.178 C 
ATOM     16  C4* LIG    1        3.722  -0.691   0.105  0.00  0.00    +0.177 C 
ATOM     17  O4* LIG    1        2.393  -0.449  -0.361  0.00  0.00    -0.346 OA
BRANCH  14  18
ATOM     18  O2* LIG    1        1.788   0.637   2.985  0.00  0.00    -0.385 OA
ATOM     19  H2* LIG    1        0.885   0.400   3.209  0.00  0.00    +0.210 HD
ENDBRANCH  14  18
BRANCH  15  20
ATOM     20  O3* LIG    1        4.312   1.103   1.677  0.00  0.00    -0.386 OA
ATOM     21  H3* LIG    1        3.832   1.718   1.117  0.00  0.00    +0.210 HD
ENDBRANCH  15  20
BRANCH  16  22
ATOM     22  C5* LIG    1        3.963  -2.205  -0.050  0.00  0.00    +0.190 C 
BRANCH  22  23
ATOM     23  O5* LIG    1        5.324  -2.519   0.163  0.00  0.00    -0.392 OA
ATOM     24  H5* LIG    1        5.441  -3.464   0.047  0.00  0.00    +0.210 HD
ENDBRANCH  22  23
ENDBRANCH  16  22
ENDBRANCH  10  13
BRANCH   1  25
ATOM     25  N   LIG    1       -1.158   4.550  -0.481  0.00  0.00    -0.329 N 
ATOM     26  H   LIG    1       -1.848   5.120  -0.946  0.00  0.00    +0.145 HD
ATOM     27  H   LIG    1       -0.220   4.918  -0.537  0.00  0.00    +0.145 HD
ENDBRANCH   1  25
BRANCH   7  28
ATOM     28  C   LIG    1       -2.835  -1.800   0.151  0.00  0.00    +0.154 C 
BRANCH  28  29
ATOM     29  C   LIG    1       -3.509  -1.922   1.504  0.00  0.00    -0.013 C 
ATOM     30  C   LIG    1       -4.812  -1.690   1.723  0.00  0.00    +0.005 C 
ENDBRANCH  28  29
ENDBRANCH   7  28
TORSDOF 8
