REMARK  Name = DB17892
REMARK                            x       y       z     vdW  Elec       q    Type
REMARK                         _______ _______ _______ _____ _____    ______ ____
ROOT
ATOM      1  C   LIG    1       -0.704  -1.231  -0.058  0.00  0.00    +0.090 A 
ATOM      2  C   LIG    1        0.013  -0.009   0.026  0.00  0.00    +0.007 A 
ATOM      3  C   LIG    1       -0.728   1.220   0.059  0.00  0.00    +0.013 A 
ATOM      4  C   LIG    1       -0.125   2.508   0.115  0.00  0.00    +0.060 A 
ATOM      5  C   LIG    1       -0.894   3.681   0.143  0.00  0.00    +0.162 A 
ATOM      6  C   LIG    1       -2.289   3.600   0.109  0.00  0.00    +0.164 A 
ATOM      7  C   LIG    1       -2.911   2.345   0.045  0.00  0.00    +0.077 A 
ATOM      8  C   LIG    1       -2.148   1.156   0.016  0.00  0.00    +0.076 A 
ATOM      9  N   LIG    1       -2.813  -0.021  -0.054  0.00  0.00    -0.249 NA
ATOM     10  C   LIG    1       -2.115  -1.182  -0.081  0.00  0.00    +0.078 A 
ENDROOT
BRANCH   2  11
ATOM     11  C   LIG    1        1.508   0.030   0.046  0.00  0.00    -0.013 A 
ATOM     12  C   LIG    1        2.242  -0.312  -1.094  0.00  0.00    +0.058 A 
ATOM     13  C   LIG    1        3.648  -0.293  -1.092  0.00  0.00    +0.162 A 
ATOM     14  C   LIG    1        4.328   0.086   0.075  0.00  0.00    +0.162 A 
ATOM     15  C   LIG    1        3.589   0.434   1.218  0.00  0.00    +0.050 A 
ATOM     16  C   LIG    1        2.197   0.403   1.201  0.00  0.00    +0.012 A 
BRANCH  13  17
ATOM     17  O   LIG    1        4.418  -0.631  -2.191  0.00  0.00    -0.491 OA
ATOM     18  C   LIG    1        3.780  -1.046  -3.394  0.00  0.00    +0.277 C 
ENDBRANCH  13  17
BRANCH  14  19
ATOM     19  O   LIG    1        5.711   0.090   0.026  0.00  0.00    -0.491 OA
ATOM     20  C   LIG    1        6.452   0.454   1.185  0.00  0.00    +0.277 C 
ENDBRANCH  14  19
ENDBRANCH   2  11
BRANCH   1  21
ATOM     21  C   LIG    1        0.024  -2.545  -0.069  0.00  0.00    +0.342 C 
ATOM     22  O   LIG    1        0.906  -2.842   0.742  0.00  0.00    -0.245 OA
BRANCH  21  23
ATOM     23  O   LIG    1       -0.276  -3.273  -1.169  0.00  0.00    -0.461 OA
BRANCH  23  25
ATOM     24  C   LIG    1       -0.228  -5.150  -2.681  0.00  0.00    +0.048 C 
ATOM     25  C   LIG    1        0.365  -4.517  -1.418  0.00  0.00    +0.229 C 
ENDBRANCH  23  25
ENDBRANCH  21  23
ENDBRANCH   1  21
BRANCH   5  26
ATOM     26  O   LIG    1       -0.344   4.951   0.201  0.00  0.00    -0.491 OA
ATOM     27  C   LIG    1        1.071   5.107   0.239  0.00  0.00    +0.277 C 
ENDBRANCH   5  26
BRANCH   6  28
ATOM     28  O   LIG    1       -2.987   4.795   0.139  0.00  0.00    -0.491 OA
ATOM     29  C   LIG    1       -4.411   4.782   0.109  0.00  0.00    +0.277 C 
ENDBRANCH   6  28
BRANCH  10  30
ATOM     30  C   LIG    1       -3.038  -2.411  -0.072  0.00  0.00    +0.201 C 
BRANCH  30  31
ATOM     31  N   LIG    1       -3.835  -2.535   1.143  0.00  0.00    -0.246 N 
ATOM     32  N   LIG    1       -3.262  -2.788   2.323  0.00  0.00    -0.158 NA
ATOM     33  C   LIG    1       -4.306  -2.762   3.125  0.00  0.00    +0.245 A 
ATOM     34  N   LIG    1       -5.488  -2.501   2.585  0.00  0.00    -0.223 NA
ATOM     35  C   LIG    1       -5.178  -2.348   1.323  0.00  0.00    +0.219 A 
ENDBRANCH  30  31
ENDBRANCH  10  30
TORSDOF 10
