REMARK  Name = DB17106
REMARK                            x       y       z     vdW  Elec       q    Type
REMARK                         _______ _______ _______ _____ _____    ______ ____
ROOT
ATOM      1  C   LIG    1       -2.628   2.556  -0.574  0.00  0.00    +0.198 C 
ATOM      2  O   LIG    1       -2.261   3.557   0.046  0.00  0.00    -0.286 OA
ENDROOT
BRANCH   1   3
ATOM      3  C   LIG    1       -1.826   1.289  -0.537  0.00  0.00    +0.026 A 
ATOM      4  C   LIG    1       -0.456   1.341  -0.239  0.00  0.00    +0.057 A 
ATOM      5  C   LIG    1        0.318   0.170  -0.162  0.00  0.00    +0.121 A 
ATOM      6  C   LIG    1       -0.305  -1.062  -0.370  0.00  0.00    +0.046 A 
ATOM      7  C   LIG    1       -1.670  -1.133  -0.640  0.00  0.00    +0.004 A 
ATOM      8  C   LIG    1       -2.427   0.034  -0.715  0.00  0.00    +0.012 A 
BRANCH   5   9
ATOM      9  O   LIG    1        1.673   0.142   0.110  0.00  0.00    -0.489 OA
BRANCH   9  10
ATOM     10  C   LIG    1        2.361   1.366   0.362  0.00  0.00    +0.262 C 
BRANCH  10  11
ATOM     11  C   LIG    1        3.845   1.075   0.656  0.00  0.00    +0.177 C 
BRANCH  11  12
ATOM     12  O   LIG    1        3.926   0.367   1.882  0.00  0.00    -0.386 OA
ATOM     13  H   LIG    1        3.372  -0.414   1.816  0.00  0.00    +0.210 HD
ENDBRANCH  11  12
BRANCH  11  14
ATOM     14  C   LIG    1        4.685   2.366   0.762  0.00  0.00    +0.190 C 
BRANCH  14  15
ATOM     15  O   LIG    1        6.070   2.081   0.799  0.00  0.00    -0.392 OA
ATOM     16  H   LIG    1        6.550   2.908   0.886  0.00  0.00    +0.210 HD
ENDBRANCH  14  15
ENDBRANCH  11  14
ENDBRANCH  10  11
ENDBRANCH   9  10
ENDBRANCH   5   9
ENDBRANCH   1   3
BRANCH   1  21
ATOM     17  C   LIG    1       -4.104   2.054  -2.653  0.00  0.00    +0.131 A 
ATOM     18  N   LIG    1       -5.373   2.496  -3.005  0.00  0.00    -0.218 N 
ATOM     19  N   LIG    1       -5.857   3.365  -2.098  0.00  0.00    -0.172 NA
ATOM     20  C   LIG    1       -4.938   3.458  -1.171  0.00  0.00    +0.148 A 
ATOM     21  C   LIG    1       -3.821   2.655  -1.423  0.00  0.00    +0.081 A 
BRANCH  18  22
ATOM     22  C   LIG    1       -6.159   2.186  -4.149  0.00  0.00    +0.068 A 
ATOM     23  C   LIG    1       -6.946   3.178  -4.755  0.00  0.00    +0.030 A 
ATOM     24  C   LIG    1       -7.721   2.872  -5.870  0.00  0.00    +0.040 A 
ATOM     25  C   LIG    1       -7.719   1.576  -6.379  0.00  0.00    +0.124 A 
ATOM     26  F   LIG    1       -8.474   1.279  -7.461  0.00  0.00    -0.205 F 
ATOM     27  C   LIG    1       -6.948   0.582  -5.781  0.00  0.00    +0.040 A 
ATOM     28  C   LIG    1       -6.171   0.884  -4.667  0.00  0.00    +0.030 A 
ENDBRANCH  18  22
BRANCH  17  29
ATOM     29  N   LIG    1       -3.352   1.240  -3.462  0.00  0.00    -0.342 N 
ATOM     30  H   LIG    1       -3.696   0.911  -4.352  0.00  0.00    +0.144 HD
ATOM     31  H   LIG    1       -2.419   0.952  -3.200  0.00  0.00    +0.144 HD
ENDBRANCH  17  29
ENDBRANCH   1  21
TORSDOF 10
