REMARK  Name = DB17801
REMARK                            x       y       z     vdW  Elec       q    Type
REMARK                         _______ _______ _______ _____ _____    ______ ____
ROOT
ATOM      1  N   LIG    1        2.073   1.007   1.265  0.00  0.00    -0.242 N 
ATOM      2  C   LIG    1        2.854   0.462   2.263  0.00  0.00    +0.183 A 
ATOM      3  N   LIG    1        3.378  -0.762   2.337  0.00  0.00    -0.129 NA
ATOM      4  N   LIG    1        4.095  -1.079   3.426  0.00  0.00    -0.146 NA
ATOM      5  C   LIG    1        4.273  -0.193   4.447  0.00  0.00    +0.112 A 
ATOM      6  C   LIG    1        3.742   1.112   4.403  0.00  0.00    +0.081 A 
ATOM      7 CL   LIG    1        3.971   2.235   5.700  0.00  0.00    -0.080 Cl
ATOM      8  C   LIG    1        3.005   1.460   3.249  0.00  0.00    +0.069 A 
ATOM      9  C   LIG    1        2.289   2.590   2.712  0.00  0.00    +0.104 A 
ATOM     10  N   LIG    1        1.727   2.273   1.566  0.00  0.00    -0.169 NA
ENDROOT
BRANCH   5  11
ATOM     11  C   LIG    1        5.060  -0.725   5.594  0.00  0.00    +0.004 A 
ATOM     12  C   LIG    1        4.531  -0.709   6.891  0.00  0.00    +0.010 A 
ATOM     13  C   LIG    1        5.266  -1.208   7.962  0.00  0.00    +0.001 A 
ATOM     14  C   LIG    1        6.537  -1.732   7.742  0.00  0.00    +0.000 A 
ATOM     15  C   LIG    1        7.077  -1.761   6.459  0.00  0.00    +0.001 A 
ATOM     16  C   LIG    1        6.339  -1.260   5.389  0.00  0.00    +0.010 A 
ENDBRANCH   5  11
BRANCH   9  17
ATOM     17  C   LIG    1        2.134   3.969   3.261  0.00  0.00    +0.003 A 
ATOM     18  C   LIG    1        3.251   4.670   3.727  0.00  0.00    +0.010 A 
ATOM     19  C   LIG    1        3.105   5.954   4.245  0.00  0.00    +0.001 A 
ATOM     20  C   LIG    1        1.842   6.539   4.295  0.00  0.00    +0.000 A 
ATOM     21  C   LIG    1        0.723   5.850   3.832  0.00  0.00    +0.001 A 
ATOM     22  C   LIG    1        0.869   4.566   3.315  0.00  0.00    +0.010 A 
ENDBRANCH   9  17
BRANCH   1  23
ATOM     23  C   LIG    1        1.569   0.383   0.039  0.00  0.00    +0.180 C 
BRANCH  23  25
ATOM     24  C   LIG    1       -0.013  -1.210   1.324  0.00  0.00    +0.043 C 
ATOM     25  C   LIG    1        0.126  -0.185   0.176  0.00  0.00    +0.080 C 
ATOM     26  C   LIG    1       -0.319  -0.817  -1.158  0.00  0.00    +0.043 C 
BRANCH  25  27
ATOM     27  O   LIG    1       -0.780   0.872   0.440  0.00  0.00    -0.387 OA
ATOM     28  H   LIG    1       -0.522   1.296   1.262  0.00  0.00    +0.210 HD
ENDBRANCH  25  27
ENDBRANCH  23  25
ENDBRANCH   1  23
TORSDOF 5
