REMARK  Name = DB17139
REMARK                            x       y       z     vdW  Elec       q    Type
REMARK                         _______ _______ _______ _____ _____    ______ ____
ROOT
ATOM      1  C   LIG    1       -1.964   0.927  -0.414  0.00  0.00    +0.255 C 
ATOM      2  C   LIG    1       -1.585   0.002  -1.575  0.00  0.00    +0.195 C 
ATOM      3  C   LIG    1       -0.795  -1.066  -0.816  0.00  0.00    +0.178 C 
ATOM      4  C   LIG    1       -0.179  -0.327   0.389  0.00  0.00    +0.178 C 
ATOM      5  O   LIG    1       -0.853   0.926   0.432  0.00  0.00    -0.346 OA
ENDROOT
BRANCH   1   9
ATOM      6  C   LIG    1       -3.192   4.740  -1.642  0.00  0.00    +0.123 A 
ATOM      7  C   LIG    1       -1.826   4.529  -1.263  0.00  0.00    +0.061 A 
ATOM      8  C   LIG    1       -1.502   3.305  -0.822  0.00  0.00    +0.096 A 
ATOM      9  N   LIG    1       -2.419   2.281  -0.734  0.00  0.00    -0.270 N 
ATOM     10  C   LIG    1       -3.712   2.466  -1.209  0.00  0.00    +0.352 A 
ATOM     11  O   LIG    1       -4.472   1.497  -1.288  0.00  0.00    -0.244 OA
ATOM     12  N   LIG    1       -4.056   3.784  -1.586  0.00  0.00    -0.178 NA
BRANCH   6  13
ATOM     13  N   LIG    1       -3.544   5.969  -2.045  0.00  0.00    -0.343 N 
ATOM     14  H   LIG    1       -4.497   6.161  -2.317  0.00  0.00    +0.144 HD
ATOM     15  H   LIG    1       -2.863   6.713  -2.081  0.00  0.00    +0.144 HD
ENDBRANCH   6  13
ENDBRANCH   1   9
BRANCH   2  16
ATOM     16  O   LIG    1       -0.813   0.681  -2.552  0.00  0.00    -0.385 OA
ATOM     17  H   LIG    1       -0.053   1.074  -2.115  0.00  0.00    +0.210 HD
ENDBRANCH   2  16
BRANCH   3  18
ATOM     18  O   LIG    1       -1.625  -2.141  -0.411  0.00  0.00    -0.386 OA
ATOM     19  H   LIG    1       -1.982  -2.565  -1.195  0.00  0.00    +0.210 HD
ENDBRANCH   3  18
BRANCH   4  20
ATOM     20  C   LIG    1        1.332  -0.050   0.302  0.00  0.00    +0.206 C 
BRANCH  20  21
ATOM     21  O   LIG    1        1.651   0.628  -0.901  0.00  0.00    -0.284 OA
BRANCH  21  22
ATOM     22  P   LIG    1        3.209   0.945  -1.257  0.00  0.00    +0.478 P 
ATOM     23  O   LIG    1        3.869  -0.521  -1.538  0.00  0.00    -0.278 OA
ATOM     24  C   LIG    1        3.377  -1.297  -2.625  0.00  0.00    +0.162 C 
ATOM     25  C   LIG    1        3.442  -0.483  -3.936  0.00  0.00    +0.065 C 
ATOM     26  C   LIG    1        2.704   0.865  -3.833  0.00  0.00    +0.175 C 
ATOM     27  O   LIG    1        3.165   1.636  -2.734  0.00  0.00    -0.286 OA
ATOM     28  O   LIG    1        3.917   1.749  -0.223  0.00  0.00    -0.227 OA
BRANCH  24  29
ATOM     29  C   LIG    1        4.112  -2.629  -2.735  0.00  0.00    -0.015 A 
ATOM     30  C   LIG    1        5.413  -2.785  -2.238  0.00  0.00    +0.026 A 
ATOM     31  C   LIG    1        6.039  -4.026  -2.370  0.00  0.00    +0.111 A 
ATOM     32  N   LIG    1        5.445  -5.094  -2.960  0.00  0.00    -0.263 NA
ATOM     33  C   LIG    1        4.186  -4.930  -3.440  0.00  0.00    +0.111 A 
ATOM     34  C   LIG    1        3.490  -3.723  -3.350  0.00  0.00    +0.026 A 
ENDBRANCH  24  29
ENDBRANCH  21  22
ENDBRANCH  20  21
ENDBRANCH   4  20
TORSDOF 8
