REMARK  Name = DB17759
REMARK                            x       y       z     vdW  Elec       q    Type
REMARK                         _______ _______ _______ _____ _____    ______ ____
ROOT
ATOM      1  C   LIG    1        1.437   0.038  -0.077  0.00  0.00    +0.173 C 
ATOM      2  C   LIG    1        1.976  -1.407  -0.041  0.00  0.00    +0.177 C 
ATOM      3  C   LIG    1        2.923  -1.432   1.155  0.00  0.00    +0.087 C 
ATOM      4  C   LIG    1        3.453  -0.005   1.106  0.00  0.00    +0.226 C 
ATOM      5  O   LIG    1        2.365   0.778   0.719  0.00  0.00    -0.349 OA
ENDROOT
BRANCH   4   6
ATOM      6  N   LIG    1        4.055   0.528   2.322  0.00  0.00    -0.274 N 
ATOM      7  C   LIG    1        5.382   0.923   2.326  0.00  0.00    +0.331 A 
ATOM      8  O   LIG    1        6.167   0.872   1.378  0.00  0.00    -0.246 OA
ATOM      9  N   LIG    1        5.813   1.405   3.538  0.00  0.00    -0.275 N 
ATOM     10  H   LIG    1        6.780   1.694   3.564  0.00  0.00    +0.173 HD
ATOM     11  C   LIG    1        5.137   1.546   4.718  0.00  0.00    +0.254 A 
ATOM     12  O   LIG    1        5.659   1.982   5.741  0.00  0.00    -0.268 OA
ATOM     13  C   LIG    1        3.751   1.124   4.626  0.00  0.00    +0.088 A 
ATOM     14  C   LIG    1        3.285   0.642   3.457  0.00  0.00    +0.098 A 
ENDBRANCH   4   6
BRANCH   2  15
ATOM     15  N   LIG    1        2.703  -1.708  -1.266  0.00  0.00    -0.106 NA
ATOM     16  N   LIG    1        2.248  -2.620  -1.956  0.00  0.00    -0.197 NA
ATOM     17  N   LIG    1        1.848  -3.381  -2.703  0.00  0.00    -0.128 NA
ATOM     18  H   LIG    1        1.714  -4.317  -2.429  0.00  0.00    +0.228 HD
ENDBRANCH   2  15
BRANCH   1  19
ATOM     19  C   LIG    1        0.041   0.187   0.559  0.00  0.00    +0.189 C 
BRANCH  19  20
ATOM     20  O   LIG    1       -0.413   1.523   0.482  0.00  0.00    -0.392 OA
ATOM     21  H   LIG    1       -1.284   1.575   0.881  0.00  0.00    +0.210 HD
ENDBRANCH  19  20
ENDBRANCH   1  19
TORSDOF 4
