REMARK  Name = DB17503
REMARK                            x       y       z     vdW  Elec       q    Type
REMARK                         _______ _______ _______ _____ _____    ______ ____
ROOT
ATOM      1  N   LIG    1        5.066   1.073   0.149  0.00  0.00    -0.302 N 
ATOM      2  H   LIG    1        5.918   0.859   0.647  0.00  0.00    +0.150 HD
ATOM      3  C   LIG    1        5.159   1.281  -1.177  0.00  0.00    +0.234 C 
ATOM      4  O   LIG    1        4.210   1.537  -1.917  0.00  0.00    -0.274 OA
ENDROOT
BRANCH   1   5
ATOM      5  C   LIG    1        3.860   1.059   0.983  0.00  0.00    +0.159 C 
BRANCH   5   8
ATOM      6  N   LIG    1        3.403   3.243   1.964  0.00  0.00    -0.303 N 
ATOM      7  H   LIG    1        4.077   2.954   2.658  0.00  0.00    +0.149 HD
ATOM      8  C   LIG    1        3.099   2.399   0.964  0.00  0.00    +0.234 C 
ATOM      9  O   LIG    1        2.295   2.642   0.064  0.00  0.00    -0.274 OA
BRANCH   6  10
ATOM     10  C   LIG    1        2.902   4.609   2.102  0.00  0.00    +0.156 C 
ATOM     11  C   LIG    1        2.340   4.788   3.523  0.00  0.00    +0.038 C 
BRANCH  10  14
ATOM     12  N   LIG    1        4.523   5.513   0.525  0.00  0.00    -0.302 N 
ATOM     13  H   LIG    1        4.113   4.844  -0.111  0.00  0.00    +0.150 HD
ATOM     14  C   LIG    1        4.037   5.594   1.776  0.00  0.00    +0.234 C 
ATOM     15  O   LIG    1        4.458   6.367   2.638  0.00  0.00    -0.274 OA
BRANCH  12  16
ATOM     16  C   LIG    1        5.606   6.322  -0.037  0.00  0.00    +0.163 C 
BRANCH  16  19
ATOM     17  N   LIG    1        6.263   8.670   0.117  0.00  0.00    -0.305 N 
ATOM     18  H   LIG    1        7.186   8.301   0.294  0.00  0.00    +0.149 HD
ATOM     19  C   LIG    1        5.249   7.818  -0.111  0.00  0.00    +0.234 C 
ATOM     20  O   LIG    1        4.092   8.164  -0.358  0.00  0.00    -0.274 OA
BRANCH  17  21
ATOM     21  C   LIG    1        6.093  10.113   0.269  0.00  0.00    +0.200 C 
BRANCH  21  24
ATOM     22  N   LIG    1        4.502  11.277   1.722  0.00  0.00    -0.302 N 
ATOM     23  H   LIG    1        4.174  11.713   0.873  0.00  0.00    +0.150 HD
ATOM     24  C   LIG    1        5.513  10.395   1.662  0.00  0.00    +0.231 C 
ATOM     25  O   LIG    1        5.980   9.833   2.654  0.00  0.00    -0.274 OA
BRANCH  22  26
ATOM     26  C   LIG    1        3.723  11.560   2.928  0.00  0.00    +0.163 C 
BRANCH  26  29
ATOM     27  N   LIG    1        2.707  10.191   4.661  0.00  0.00    -0.302 N 
ATOM     28  H   LIG    1        3.219  10.796   5.286  0.00  0.00    +0.150 HD
ATOM     29  C   LIG    1        2.831  10.372   3.339  0.00  0.00    +0.234 C 
ATOM     30  O   LIG    1        2.256   9.705   2.478  0.00  0.00    -0.274 OA
BRANCH  27  31
ATOM     31  C   LIG    1        1.765   9.288   5.314  0.00  0.00    +0.159 C 
BRANCH  31  32
ATOM     32  C   LIG    1        1.003  10.118   6.356  0.00  0.00    +0.234 C 
ATOM     33  N   LIG    1       -0.337  10.000   6.344  0.00  0.00    -0.302 N 
ATOM     34  H   LIG    1       -0.764   9.384   5.668  0.00  0.00    +0.150 HD
ATOM     35  O   LIG    1        1.639  10.836   7.131  0.00  0.00    -0.274 OA
BRANCH  33  36
ATOM     36  C   LIG    1       -1.280  10.747   7.188  0.00  0.00    +0.169 C 
BRANCH  36  37
ATOM     37  C   LIG    1       -0.965  10.615   8.688  0.00  0.00    +0.234 C 
ATOM     38  N   LIG    1       -0.717  11.769   9.325  0.00  0.00    -0.302 N 
ATOM     39  H   LIG    1       -0.780  12.637   8.812  0.00  0.00    +0.150 HD
ATOM     40  O   LIG    1       -0.926   9.500   9.210  0.00  0.00    -0.274 OA
BRANCH  38  41
ATOM     41  C   LIG    1       -0.241  11.886  10.701  0.00  0.00    +0.163 C 
BRANCH  41  42
ATOM     42  C   LIG    1       -0.556  13.286  11.267  0.00  0.00    +0.231 C 
ATOM     43  O   LIG    1       -0.360  14.292  10.586  0.00  0.00    -0.274 OA
ATOM     44  N   LIG    1       -1.007  13.342  12.524  0.00  0.00    -0.328 N 
ATOM     45  H   LIG    1       -1.212  14.236  12.947  0.00  0.00    +0.145 HD
ATOM     46  H   LIG    1       -1.138  12.497  13.059  0.00  0.00    +0.145 HD
ENDBRANCH  41  42
BRANCH  41  47
ATOM     47  C   LIG    1        1.269  11.534  10.743  0.00  0.00    +0.067 C 
BRANCH  47  48
ATOM     48  C   LIG    1        1.974  11.746  12.073  0.00  0.00    -0.045 A 
ATOM     49  C   LIG    1        1.818  10.805  13.113  0.00  0.00    +0.004 A 
ATOM     50  C   LIG    1        2.390  11.043  14.356  0.00  0.00    +0.000 A 
ATOM     51  C   LIG    1        3.095  12.217  14.589  0.00  0.00    +0.000 A 
ATOM     52  C   LIG    1        3.225  13.170  13.586  0.00  0.00    +0.000 A 
ATOM     53  C   LIG    1        2.661  12.951  12.336  0.00  0.00    +0.004 A 
ENDBRANCH  47  48
ENDBRANCH  41  47
ENDBRANCH  38  41
ENDBRANCH  36  37
BRANCH  36  54
ATOM     54  C   LIG    1       -2.762  10.378   6.916  0.00  0.00    +0.152 C 
BRANCH  54  55
ATOM     55  C   LIG    1       -3.245  10.495   5.456  0.00  0.00    +0.307 C 
ATOM     56  O   LIG    1       -4.311   9.902   5.177  0.00  0.00    -0.251 OA
BRANCH  55  57
ATOM     57  O   LIG    1       -2.648  11.275   4.680  0.00  0.00    -0.481 OA
ATOM     58  H   LIG    1       -2.929  11.358   3.790  0.00  0.00    +0.295 HD
ENDBRANCH  55  57
ENDBRANCH  54  55
ENDBRANCH  36  54
ENDBRANCH  33  36
ENDBRANCH  31  32
BRANCH  31  59
ATOM     59  C   LIG    1        2.494   8.081   5.946  0.00  0.00    +0.032 C 
BRANCH  59  60
ATOM     60  C   LIG    1        1.567   7.069   6.653  0.00  0.00    +0.002 C 
BRANCH  60  62
ATOM     61  C   LIG    1        1.415   4.845   7.914  0.00  0.00    +0.004 C 
ATOM     62  C   LIG    1        2.337   5.887   7.267  0.00  0.00    -0.003 C 
ENDBRANCH  60  62
ENDBRANCH  59  60
ENDBRANCH  31  59
ENDBRANCH  27  31
ENDBRANCH  26  29
BRANCH  26  63
ATOM     63  C   LIG    1        2.903  12.854   2.711  0.00  0.00    +0.069 C 
BRANCH  63  64
ATOM     64  C   LIG    1        1.919  13.223   3.788  0.00  0.00    -0.020 A 
ATOM     65  C   LIG    1        2.179  13.624   5.170  0.00  0.00    +0.003 A 
ATOM     66  C   LIG    1        3.345  13.836   5.944  0.00  0.00    +0.010 A 
ATOM     67  C   LIG    1        3.265  14.207   7.302  0.00  0.00    +0.001 A 
ATOM     68  C   LIG    1        2.012  14.380   7.922  0.00  0.00    +0.002 A 
ATOM     69  C   LIG    1        0.832  14.182   7.183  0.00  0.00    +0.026 A 
ATOM     70  C   LIG    1        0.924  13.806   5.832  0.00  0.00    +0.047 A 
ATOM     71  N   LIG    1       -0.016  13.516   4.866  0.00  0.00    -0.360 N 
ATOM     72  H   LIG    1       -1.018  13.519   4.995  0.00  0.00    +0.165 HD
ATOM     73  C   LIG    1        0.573  13.163   3.670  0.00  0.00    +0.087 A 
ENDBRANCH  63  64
ENDBRANCH  26  63
ENDBRANCH  22  26
ENDBRANCH  21  24
ENDBRANCH  17  21
ENDBRANCH  16  19
BRANCH  16  74
ATOM     74  C   LIG    1        5.994   5.748  -1.417  0.00  0.00    +0.067 C 
BRANCH  74  75
ATOM     75  C   LIG    1        4.930   5.806  -2.506  0.00  0.00    -0.045 A 
ATOM     76  C   LIG    1        4.985   6.799  -3.507  0.00  0.00    +0.007 A 
ATOM     77  C   LIG    1        4.010   6.835  -4.524  0.00  0.00    +0.045 A 
ATOM     78  C   LIG    1        2.974   5.880  -4.542  0.00  0.00    +0.117 A 
ATOM     79  C   LIG    1        2.917   4.888  -3.545  0.00  0.00    +0.045 A 
ATOM     80  C   LIG    1        3.893   4.850  -2.533  0.00  0.00    +0.007 A 
BRANCH  78  81
ATOM     81  O   LIG    1        2.028   5.914  -5.525  0.00  0.00    -0.507 OA
ATOM     82  H   LIG    1        2.153   6.632  -6.150  0.00  0.00    +0.292 HD
ENDBRANCH  78  81
ENDBRANCH  74  75
ENDBRANCH  16  74
ENDBRANCH  12  16
ENDBRANCH  10  14
ENDBRANCH   6  10
ENDBRANCH   5   8
BRANCH   5  83
ATOM     83  C   LIG    1        2.992  -0.183   0.665  0.00  0.00    +0.043 C 
BRANCH  83  84
ATOM     84  C   LIG    1        1.714  -0.307   1.531  0.00  0.00    +0.123 C 
BRANCH  84  85
ATOM     85  C   LIG    1        0.918  -1.614   1.369  0.00  0.00    +0.305 C 
ATOM     86  O   LIG    1       -0.162  -1.680   1.995  0.00  0.00    -0.251 OA
BRANCH  85  87
ATOM     87  O   LIG    1        1.372  -2.524   0.639  0.00  0.00    -0.481 OA
ATOM     88  H   LIG    1        0.894  -3.323   0.535  0.00  0.00    +0.295 HD
ENDBRANCH  85  87
ENDBRANCH  84  85
ENDBRANCH  83  84
ENDBRANCH   5  83
ENDBRANCH   1   5
BRANCH   3  89
ATOM     89  C   LIG    1        6.574   1.125  -1.763  0.00  0.00    +0.159 C 
BRANCH  89  90
ATOM     90  N   LIG    1        6.960   2.232  -2.646  0.00  0.00    -0.302 N 
ATOM     91  H   LIG    1        7.606   2.886  -2.226  0.00  0.00    +0.150 HD
ATOM     92  C   LIG    1        6.565   2.482  -3.906  0.00  0.00    +0.234 C 
ATOM     93  O   LIG    1        5.785   1.770  -4.541  0.00  0.00    -0.274 OA
BRANCH  92  94
ATOM     94  C   LIG    1        7.124   3.781  -4.533  0.00  0.00    +0.159 C 
BRANCH  94  95
ATOM     95  N   LIG    1        6.284   4.258  -5.639  0.00  0.00    -0.302 N 
ATOM     96  H   LIG    1        5.601   4.949  -5.363  0.00  0.00    +0.150 HD
ATOM     97  C   LIG    1        6.211   3.789  -6.898  0.00  0.00    +0.234 C 
ATOM     98  O   LIG    1        6.963   2.945  -7.385  0.00  0.00    -0.274 OA
BRANCH  97  99
ATOM     99  C   LIG    1        4.997   4.302  -7.697  0.00  0.00    +0.159 C 
BRANCH  99 100
ATOM    100  N   LIG    1        3.767   3.726  -7.144  0.00  0.00    -0.302 N 
ATOM    101  H   LIG    1        3.166   4.388  -6.674  0.00  0.00    +0.150 HD
ATOM    102  C   LIG    1        3.441   2.422  -7.070  0.00  0.00    +0.234 C 
ATOM    103  O   LIG    1        4.058   1.513  -7.626  0.00  0.00    -0.274 OA
BRANCH 102 104
ATOM    104  C   LIG    1        2.221   2.100  -6.189  0.00  0.00    +0.159 C 
BRANCH 104 105
ATOM    105  N   LIG    1        2.517   1.083  -5.172  0.00  0.00    -0.302 N 
ATOM    106  H   LIG    1        2.620   1.452  -4.237  0.00  0.00    +0.150 HD
ATOM    107  C   LIG    1        2.671  -0.245  -5.330  0.00  0.00    +0.234 C 
ATOM    108  O   LIG    1        2.591  -0.830  -6.410  0.00  0.00    -0.274 OA
BRANCH 107 109
ATOM    109  C   LIG    1        2.955  -1.032  -4.031  0.00  0.00    +0.159 C 
BRANCH 109 110
ATOM    110  N   LIG    1        3.729  -2.266  -4.238  0.00  0.00    -0.303 N 
ATOM    111  H   LIG    1        4.680  -2.222  -3.901  0.00  0.00    +0.149 HD
ATOM    112  C   LIG    1        3.331  -3.413  -4.822  0.00  0.00    +0.228 C 
ATOM    113  O   LIG    1        2.196  -3.578  -5.274  0.00  0.00    -0.274 OA
BRANCH 112 114
ATOM    114  C   LIG    1        4.412  -4.521  -4.896  0.00  0.00    +0.180 C 
BRANCH 114 115
ATOM    115  N   LIG    1        3.977  -5.791  -5.493  0.00  0.00    -0.292 NA
ATOM    116  C   LIG    1        3.602  -5.714  -6.911  0.00  0.00    +0.100 C 
ATOM    117  C   LIG    1        4.044  -6.970  -7.707  0.00  0.00    +0.100 C 
ATOM    118  N   LIG    1        5.477  -7.297  -7.571  0.00  0.00    -0.290 NA
ATOM    119  C   LIG    1        5.691  -8.622  -8.188  0.00  0.00    +0.100 C 
ATOM    120  C   LIG    1        5.255  -9.809  -7.291  0.00  0.00    +0.100 C 
ATOM    121  N   LIG    1        5.892  -9.851  -5.970  0.00  0.00    -0.290 NA
ATOM    122  C   LIG    1        5.147 -10.439  -4.855  0.00  0.00    +0.100 C 
ATOM    123  C   LIG    1        4.158  -9.442  -4.204  0.00  0.00    +0.100 C 
ATOM    124  N   LIG    1        4.766  -8.158  -3.807  0.00  0.00    -0.290 NA
ATOM    125  C   LIG    1        3.665  -7.237  -3.460  0.00  0.00    +0.100 C 
ATOM    126  C   LIG    1        3.019  -6.584  -4.705  0.00  0.00    +0.100 C 
BRANCH 121 127
ATOM    127  C   LIG    1        7.338  -9.662  -5.808  0.00  0.00    +0.205 C 
BRANCH 127 128
ATOM    128  C   LIG    1        8.098 -10.964  -6.085  0.00  0.00    +0.319 C 
ATOM    129  O   LIG    1        8.549 -11.681  -5.193  0.00  0.00    -0.250 OA
BRANCH 128 130
ATOM    130  O   LIG    1        8.214 -11.216  -7.422  0.00  0.00    -0.480 OA
ATOM    131  H   LIG    1        8.691 -12.029  -7.599  0.00  0.00    +0.295 HD
ENDBRANCH 128 130
ENDBRANCH 127 128
ENDBRANCH 121 127
BRANCH 124 132
ATOM    132  C   LIG    1        5.651  -8.350  -2.644  0.00  0.00    +0.205 C 
BRANCH 132 133
ATOM    133  C   LIG    1        6.613  -7.160  -2.480  0.00  0.00    +0.319 C 
ATOM    134  O   LIG    1        7.022  -6.466  -3.411  0.00  0.00    -0.250 OA
BRANCH 133 135
ATOM    135  O   LIG    1        6.990  -7.007  -1.179  0.00  0.00    -0.480 OA
ATOM    136  H   LIG    1        7.561  -6.244  -1.062  0.00  0.00    +0.295 HD
ENDBRANCH 133 135
ENDBRANCH 132 133
ENDBRANCH 124 132
BRANCH 118 137
ATOM    137  C   LIG    1        6.288  -6.277  -8.263  0.00  0.00    +0.205 C 
BRANCH 137 138
ATOM    138  C   LIG    1        7.755  -6.339  -7.812  0.00  0.00    +0.319 C 
ATOM    139  O   LIG    1        8.683  -6.588  -8.579  0.00  0.00    -0.250 OA
BRANCH 138 140
ATOM    140  O   LIG    1        7.893  -6.062  -6.482  0.00  0.00    -0.480 OA
ATOM    141  H   LIG    1        8.805  -6.087  -6.187  0.00  0.00    +0.295 HD
ENDBRANCH 138 140
ENDBRANCH 137 138
ENDBRANCH 118 137
ENDBRANCH 114 115
ENDBRANCH 112 114
ENDBRANCH 109 110
BRANCH 109 142
ATOM    142  C   LIG    1        1.685  -1.307  -3.175  0.00  0.00    +0.043 C 
BRANCH 142 143
ATOM    143  C   LIG    1        0.861  -0.059  -2.787  0.00  0.00    +0.123 C 
BRANCH 143 144
ATOM    144  C   LIG    1       -0.289  -0.379  -1.832  0.00  0.00    +0.305 C 
ATOM    145  O   LIG    1       -0.891  -1.450  -1.808  0.00  0.00    -0.251 OA
BRANCH 144 146
ATOM    146  O   LIG    1       -0.593   0.678  -1.025  0.00  0.00    -0.481 OA
ATOM    147  H   LIG    1       -1.305   0.477  -0.414  0.00  0.00    +0.295 HD
ENDBRANCH 144 146
ENDBRANCH 143 144
ENDBRANCH 142 143
ENDBRANCH 109 142
ENDBRANCH 107 109
ENDBRANCH 104 105
BRANCH 104 148
ATOM    148  C   LIG    1        0.927   1.785  -6.981  0.00  0.00    +0.043 C 
BRANCH 148 149
ATOM    149  C   LIG    1        0.520   2.883  -7.992  0.00  0.00    +0.123 C 
BRANCH 149 150
ATOM    150  C   LIG    1       -0.843   2.687  -8.681  0.00  0.00    +0.305 C 
ATOM    151  O   LIG    1       -1.212   3.607  -9.444  0.00  0.00    -0.251 OA
BRANCH 150 152
ATOM    152  O   LIG    1       -1.505   1.649  -8.453  0.00  0.00    -0.481 OA
ATOM    153  H   LIG    1       -2.335   1.522  -8.868  0.00  0.00    +0.295 HD
ENDBRANCH 150 152
ENDBRANCH 149 150
ENDBRANCH 148 149
ENDBRANCH 104 148
ENDBRANCH 102 104
ENDBRANCH  99 100
BRANCH  99 154
ATOM    154  C   LIG    1        5.078   4.092  -9.231  0.00  0.00    +0.043 C 
BRANCH 154 155
ATOM    155  C   LIG    1        6.253   4.842  -9.906  0.00  0.00    +0.123 C 
BRANCH 155 156
ATOM    156  C   LIG    1        6.321   4.739 -11.441  0.00  0.00    +0.305 C 
ATOM    157  O   LIG    1        7.234   5.390 -11.996  0.00  0.00    -0.251 OA
BRANCH 156 158
ATOM    158  O   LIG    1        5.487   4.031 -12.048  0.00  0.00    -0.481 OA
ATOM    159  H   LIG    1        5.521   3.962 -12.982  0.00  0.00    +0.295 HD
ENDBRANCH 156 158
ENDBRANCH 155 156
ENDBRANCH 154 155
ENDBRANCH  99 154
ENDBRANCH  97  99
ENDBRANCH  94  95
BRANCH  94 160
ATOM    160  C   LIG    1        8.628   3.718  -4.928  0.00  0.00    +0.043 C 
BRANCH 160 161
ATOM    161  C   LIG    1        9.637   3.492  -3.775  0.00  0.00    +0.123 C 
BRANCH 161 162
ATOM    162  C   LIG    1        9.575   4.534  -2.643  0.00  0.00    +0.305 C 
ATOM    163  O   LIG    1        9.621   4.103  -1.470  0.00  0.00    -0.251 OA
BRANCH 162 164
ATOM    164  O   LIG    1        9.480   5.742  -2.957  0.00  0.00    -0.481 OA
ATOM    165  H   LIG    1        9.441   6.398  -2.289  0.00  0.00    +0.295 HD
ENDBRANCH 162 164
ENDBRANCH 161 162
ENDBRANCH 160 161
ENDBRANCH  94 160
ENDBRANCH  92  94
ENDBRANCH  89  90
BRANCH  89 166
ATOM    166  C   LIG    1        6.824  -0.264  -2.410  0.00  0.00    +0.043 C 
BRANCH 166 167
ATOM    167  C   LIG    1        6.484  -1.467  -1.496  0.00  0.00    +0.123 C 
BRANCH 167 168
ATOM    168  C   LIG    1        6.874  -2.852  -2.041  0.00  0.00    +0.305 C 
ATOM    169  O   LIG    1        6.813  -3.799  -1.227  0.00  0.00    -0.251 OA
BRANCH 168 170
ATOM    170  O   LIG    1        7.226  -2.963  -3.237  0.00  0.00    -0.481 OA
ATOM    171  H   LIG    1        7.466  -3.802  -3.579  0.00  0.00    +0.295 HD
ENDBRANCH 168 170
ENDBRANCH 167 168
ENDBRANCH 166 167
ENDBRANCH  89 166
ENDBRANCH   3  89
TORSDOF 74
