REMARK  Name = DB17037
REMARK                            x       y       z     vdW  Elec       q    Type
REMARK                         _______ _______ _______ _____ _____    ______ ____
ROOT
ATOM      1  C   LIG    1        0.191   3.060   1.160  0.00  0.00    +0.066 C 
ATOM      2  C   LIG    1        0.105   1.876   0.120  0.00  0.00    +0.119 C 
ATOM      3  C   LIG    1       -1.330   1.300   0.218  0.00  0.00    +0.053 C 
ATOM      4  C   LIG    1       -1.667   0.721   1.612  0.00  0.00    +0.039 C 
ATOM      5  C   LIG    1       -1.051   1.497   2.782  0.00  0.00    -0.041 A 
ATOM      6  C   LIG    1       -1.359   1.113   4.093  0.00  0.00    +0.042 A 
ATOM      7  C   LIG    1       -0.771   1.738   5.189  0.00  0.00    +0.124 A 
ATOM      8  C   LIG    1        0.148   2.760   4.988  0.00  0.00    +0.038 A 
ATOM      9  C   LIG    1        0.462   3.161   3.693  0.00  0.00    +0.007 A 
ATOM     10  F   LIG    1       -1.085   1.343   6.443  0.00  0.00    -0.205 F 
ATOM     11  C   LIG    1       -0.135   2.558   2.577  0.00  0.00    -0.037 A 
ENDROOT
BRANCH   1  13
ATOM     12  C   LIG    1        0.210   5.642   1.085  0.00  0.00    +0.008 C 
ATOM     13  C   LIG    1       -0.612   4.369   0.796  0.00  0.00    -0.006 C 
ATOM     14  C   LIG    1       -2.013   4.515   1.442  0.00  0.00    +0.008 C 
ENDBRANCH   1  13
BRANCH   2  15
ATOM     15  O   LIG    1        0.221   2.232  -1.276  0.00  0.00    -0.457 OA
BRANCH  15  16
ATOM     16  C   LIG    1        1.134   3.088  -1.831  0.00  0.00    +0.311 C 
ATOM     17  O   LIG    1        1.976   3.747  -1.221  0.00  0.00    -0.251 OA
BRANCH  16  18
ATOM     18  C   LIG    1        1.042   3.195  -3.362  0.00  0.00    +0.098 C 
ATOM     19  C   LIG    1        0.721   1.936  -4.155  0.00  0.00    +0.015 C 
ATOM     20  C   LIG    1       -0.312   3.015  -4.035  0.00  0.00    +0.015 C 
ENDBRANCH  16  18
ENDBRANCH  15  16
ENDBRANCH   2  15
BRANCH   2  21
ATOM     21  C   LIG    1        1.148   0.724   0.369  0.00  0.00    +0.030 C 
BRANCH  21  22
ATOM     22  C   LIG    1        2.648   1.087   0.334  0.00  0.00    -0.075 C 
BRANCH  22  23
ATOM     23  N   LIG    1        3.513  -0.174   0.583  0.00  0.00    +0.378 N 
ATOM     24  H   LIG    1        3.043  -0.950   0.138  0.00  0.00    -0.082 HD
ATOM     25  C   LIG    1        3.618  -0.510   2.087  0.00  0.00    -0.096 C 
BRANCH  23  26
ATOM     26  C   LIG    1        4.916  -0.096  -0.067  0.00  0.00    -0.079 C 
BRANCH  26  27
ATOM     27  C   LIG    1        4.824  -0.279  -1.595  0.00  0.00    -0.011 C 
BRANCH  27  28
ATOM     28  C   LIG    1        6.206  -0.334  -2.275  0.00  0.00    +0.072 C 
BRANCH  28  29
ATOM     29  C   LIG    1        6.151  -0.463  -3.789  0.00  0.00    +0.108 A 
ATOM     30  N   LIG    1        7.296  -0.566  -4.545  0.00  0.00    -0.342 N 
ATOM     31  H   LIG    1        8.226  -0.569  -4.152  0.00  0.00    +0.167 HD
ATOM     32  C   LIG    1        6.915  -0.655  -5.864  0.00  0.00    +0.066 A 
ATOM     33  C   LIG    1        7.615  -0.775  -7.068  0.00  0.00    +0.028 A 
ATOM     34  C   LIG    1        6.846  -0.835  -8.233  0.00  0.00    +0.002 A 
ATOM     35  C   LIG    1        5.452  -0.781  -8.203  0.00  0.00    +0.002 A 
ATOM     36  C   LIG    1        4.756  -0.662  -6.998  0.00  0.00    +0.030 A 
ATOM     37  C   LIG    1        5.499  -0.598  -5.810  0.00  0.00    +0.089 A 
ATOM     38  N   LIG    1        5.059  -0.481  -4.518  0.00  0.00    -0.232 NA
ENDBRANCH  28  29
ENDBRANCH  27  28
ENDBRANCH  26  27
ENDBRANCH  23  26
ENDBRANCH  22  23
ENDBRANCH  21  22
ENDBRANCH   2  21
TORSDOF 11
