REMARK  Name = DB17043
REMARK                            x       y       z     vdW  Elec       q    Type
REMARK                         _______ _______ _______ _____ _____    ______ ____
ROOT
ATOM      1  C   LIG    1        1.488  -0.044   0.016  0.00  0.00    +0.047 A 
ATOM      2  N   LIG    1        2.232  -1.201   0.010  0.00  0.00    -0.357 N 
ATOM      3  H   LIG    1        1.849  -2.135  -0.008  0.00  0.00    +0.166 HD
ATOM      4  C   LIG    1        3.567  -0.903   0.057  0.00  0.00    +0.030 A 
ATOM      5  C   LIG    1        3.722   0.475   0.001  0.00  0.00    +0.058 A 
ATOM      6  C   LIG    1        5.008   1.143   0.039  0.00  0.00    +0.246 C 
ATOM      7  O   LIG    1        5.230   2.329   0.274  0.00  0.00    -0.270 OA
ATOM      8  N   LIG    1        6.037   0.266  -0.122  0.00  0.00    -0.311 N 
ATOM      9  H   LIG    1        6.966   0.602   0.085  0.00  0.00    +0.149 HD
ATOM     10  C   LIG    1        5.905  -1.108  -0.662  0.00  0.00    +0.110 C 
ATOM     11  C   LIG    1        4.728  -1.868   0.009  0.00  0.00    +0.072 C 
ATOM     12  C   LIG    1        2.420   0.997   0.036  0.00  0.00    +0.041 A 
ENDROOT
BRANCH   1  14
ATOM     13  C   LIG    1       -0.693   1.200   0.003  0.00  0.00    +0.029 A 
ATOM     14  C   LIG    1       -0.007  -0.022   0.007  0.00  0.00    +0.001 A 
ATOM     15  C   LIG    1       -0.758  -1.207   0.003  0.00  0.00    +0.029 A 
ATOM     16  C   LIG    1       -2.152  -1.126  -0.005  0.00  0.00    +0.111 A 
ATOM     17  N   LIG    1       -2.823   0.052  -0.009  0.00  0.00    -0.263 NA
ATOM     18  C   LIG    1       -2.089   1.194  -0.005  0.00  0.00    +0.111 A 
ENDBRANCH   1  14
TORSDOF 1
