REMARK  Name = DB17174
REMARK                            x       y       z     vdW  Elec       q    Type
REMARK                         _______ _______ _______ _____ _____    ______ ____
ROOT
ATOM      1  C   LIG    1        1.479   0.315   0.426  0.00  0.00    +0.110 C 
ATOM      2  C   LIG    1        1.881  -1.118   0.490  0.00  0.00    +0.225 C 
ATOM      3  O   LIG    1        1.050  -2.035   0.555  0.00  0.00    -0.284 OA
ATOM      4  C   LIG    1        3.359  -1.320   0.456  0.00  0.00    +0.104 C 
ATOM      5  C   LIG    1        4.231  -0.262   0.427  0.00  0.00    +0.110 C 
ATOM      6  C   LIG    1        3.829   1.171   0.488  0.00  0.00    +0.225 C 
ATOM      7  O   LIG    1        4.660   2.088   0.551  0.00  0.00    -0.284 OA
ATOM      8  C   LIG    1        2.351   1.373   0.455  0.00  0.00    +0.104 C 
ENDROOT
BRANCH   1  10
ATOM      9  C   LIG    1       -0.684   0.558  -0.693  0.00  0.00    +0.405 C 
ATOM     10  N   LIG    1        0.127   0.522   0.436  0.00  0.00    -0.246 N 
ATOM     11  H   LIG    1       -0.337   0.508   1.333  0.00  0.00    +0.158 HD
ATOM     12  O   LIG    1       -0.306   0.480  -1.866  0.00  0.00    -0.226 OA
BRANCH   9  13
ATOM     13  O   LIG    1       -1.966   0.696  -0.304  0.00  0.00    -0.450 OA
BRANCH  13  15
ATOM     14  C   LIG    1       -4.355   0.930  -0.538  0.00  0.00    +0.048 C 
ATOM     15  C   LIG    1       -3.015   0.758  -1.261  0.00  0.00    +0.230 C 
ENDBRANCH  13  15
ENDBRANCH   9  13
ENDBRANCH   1  10
BRANCH   5  16
ATOM     16  N   LIG    1        5.583  -0.469   0.436  0.00  0.00    -0.246 N 
ATOM     17  H   LIG    1        6.048  -0.459   1.332  0.00  0.00    +0.158 HD
ATOM     18  C   LIG    1        6.392  -0.505  -0.694  0.00  0.00    +0.405 C 
ATOM     19  O   LIG    1        6.013  -0.425  -1.866  0.00  0.00    -0.226 OA
BRANCH  18  20
ATOM     20  O   LIG    1        7.674  -0.645  -0.306  0.00  0.00    -0.450 OA
BRANCH  20  21
ATOM     21  C   LIG    1        8.723  -0.707  -1.263  0.00  0.00    +0.230 C 
ATOM     22  C   LIG    1       10.062  -0.876  -0.538  0.00  0.00    +0.048 C 
ENDBRANCH  20  21
ENDBRANCH  18  20
ENDBRANCH   5  16
BRANCH   4  23
ATOM     23  N   LIG    1        3.642  -2.706   0.488  0.00  0.00    -0.322 N 
ATOM     24  C   LIG    1        4.429  -3.414  -0.511  0.00  0.00    +0.124 C 
ATOM     25  C   LIG    1        4.845  -3.402   0.930  0.00  0.00    +0.124 C 
ENDBRANCH   4  23
BRANCH   8  26
ATOM     26  N   LIG    1        2.068   2.759   0.487  0.00  0.00    -0.322 N 
ATOM     27  C   LIG    1        1.280   3.466  -0.511  0.00  0.00    +0.124 C 
ATOM     28  C   LIG    1        0.866   3.455   0.930  0.00  0.00    +0.124 C 
ENDBRANCH   8  26
TORSDOF 8
