REMARK  Name = DB17257
REMARK                            x       y       z     vdW  Elec       q    Type
REMARK                         _______ _______ _______ _____ _____    ______ ____
ROOT
ATOM      1  N   LIG    1        1.377  -0.170  -1.049  0.00  0.00    -0.004 N 
ATOM      2  N   LIG    1        2.129   0.857  -1.193  0.00  0.00    +0.063 NA
ENDROOT
BRANCH   1   7
ATOM      3  C   LIG    1       -4.221   0.547  -0.611  0.00  0.00    +0.403 C 
ATOM      4  N   LIG    1       -2.815   0.463  -0.578  0.00  0.00    -0.264 N 
ATOM      5  C   LIG    1       -2.228  -0.723   0.069  0.00  0.00    +0.131 C 
ATOM      6  C   LIG    1       -0.866  -1.055  -0.577  0.00  0.00    +0.148 C 
ATOM      7  N   LIG    1        0.023   0.113  -0.689  0.00  0.00    -0.221 N 
ATOM      8  C   LIG    1       -0.615   1.233  -1.406  0.00  0.00    +0.148 C 
ATOM      9  C   LIG    1       -1.971   1.655  -0.799  0.00  0.00    +0.131 C 
ATOM     10  O   LIG    1       -4.994  -0.379  -0.348  0.00  0.00    -0.226 OA
BRANCH   3  11
ATOM     11  O   LIG    1       -4.653   1.778  -1.000  0.00  0.00    -0.451 OA
BRANCH  11  13
ATOM     12  C   LIG    1       -6.218   3.516  -1.582  0.00  0.00    +0.048 C 
ATOM     13  C   LIG    1       -6.040   2.070  -1.112  0.00  0.00    +0.230 C 
ENDBRANCH  11  13
ENDBRANCH   3  11
ENDBRANCH   1   7
BRANCH   1  14
ATOM     14  O   LIG    1        1.741  -1.387  -1.034  0.00  0.00    -0.396 OA
ATOM     15  H   LIG    1        1.104  -2.065  -0.921  0.00  0.00    +0.329 HD
ENDBRANCH   1  14
BRANCH   2  16
ATOM     16  O   LIG    1        3.456   0.437  -1.460  0.00  0.00    -0.334 OA
BRANCH  16  17
ATOM     17  C   LIG    1        4.304   1.520  -1.477  0.00  0.00    +0.190 A 
ATOM     18  C   LIG    1        4.541   2.342  -0.353  0.00  0.00    +0.168 A 
ATOM     19  C   LIG    1        5.409   3.435  -0.480  0.00  0.00    +0.069 A 
ATOM     20  C   LIG    1        6.068   3.714  -1.687  0.00  0.00    +0.124 A 
ATOM     21  C   LIG    1        5.843   2.866  -2.779  0.00  0.00    +0.036 A 
ATOM     22  C   LIG    1        4.977   1.782  -2.672  0.00  0.00    +0.053 A 
BRANCH  18  23
ATOM     23  N   LIG    1        3.915   2.076   0.960  0.00  0.00    +0.010 N 
ATOM     24  O   LIG    1        3.868   0.918   1.361  0.00  0.00    -0.130 OA
BRANCH  23  25
ATOM     25  O   LIG    1        3.489   3.035   1.597  0.00  0.00    -0.396 OA
ATOM     26  H   LIG    1        3.551   3.899   1.241  0.00  0.00    +0.329 HD
ENDBRANCH  23  25
ENDBRANCH  18  23
BRANCH  20  27
ATOM     27  N   LIG    1        6.987   4.872  -1.801  0.00  0.00    +0.006 N 
ATOM     28  O   LIG    1        7.160   5.586  -0.817  0.00  0.00    -0.130 OA
BRANCH  27  29
ATOM     29  O   LIG    1        7.543   5.077  -2.877  0.00  0.00    -0.396 OA
ATOM     30  H   LIG    1        7.382   4.507  -3.603  0.00  0.00    +0.329 HD
ENDBRANCH  27  29
ENDBRANCH  20  27
ENDBRANCH  16  17
ENDBRANCH   2  16
TORSDOF 10
