REMARK  Name = DB17516
REMARK                            x       y       z     vdW  Elec       q    Type
REMARK                         _______ _______ _______ _____ _____    ______ ____
ROOT
ATOM      1  C   LIG    1        1.750  -0.899   2.940  0.00  0.00    +0.022 C 
ATOM      2  C   LIG    1        2.345   0.378   2.930  0.00  0.00    +0.047 A 
ATOM      3  N   LIG    1        3.626   0.683   2.617  0.00  0.00    -0.354 N 
ATOM      4  H   LIG    1        4.338   0.024   2.345  0.00  0.00    +0.166 HD
ATOM      5  C   LIG    1        3.778   2.027   2.688  0.00  0.00    +0.047 A 
ATOM      6  C   LIG    1        2.574   2.579   3.081  0.00  0.00    +0.028 A 
ATOM      7  C   LIG    1        4.944   2.763   2.406  0.00  0.00    +0.022 C 
ATOM      8  C   LIG    1        6.182   2.189   2.059  0.00  0.00    +0.047 A 
ATOM      9  N   LIG    1        6.473   0.870   1.982  0.00  0.00    -0.354 N 
ATOM     10  H   LIG    1        5.832   0.115   2.168  0.00  0.00    +0.166 HD
ATOM     11  C   LIG    1        7.785   0.734   1.683  0.00  0.00    +0.047 A 
ATOM     12  C   LIG    1        8.322   1.998   1.517  0.00  0.00    +0.028 A 
ATOM     13  C   LIG    1        8.508  -0.470   1.584  0.00  0.00    +0.022 C 
ATOM     14  C   LIG    1        7.934  -1.753   1.679  0.00  0.00    +0.047 A 
ATOM     15  N   LIG    1        6.628  -2.053   1.880  0.00  0.00    -0.354 N 
ATOM     16  H   LIG    1        5.882  -1.385   1.989  0.00  0.00    +0.166 HD
ATOM     17  C   LIG    1        6.492  -3.400   1.883  0.00  0.00    +0.047 A 
ATOM     18  C   LIG    1        7.741  -3.960   1.697  0.00  0.00    +0.028 A 
ATOM     19  C   LIG    1        5.298  -4.133   2.036  0.00  0.00    +0.022 C 
ATOM     20  C   LIG    1        4.040  -3.557   2.301  0.00  0.00    +0.047 A 
ATOM     21  N   LIG    1        3.763  -2.241   2.446  0.00  0.00    -0.354 N 
ATOM     22  H   LIG    1        4.431  -1.489   2.383  0.00  0.00    +0.166 HD
ATOM     23  C   LIG    1        2.865  -4.265   2.471  0.00  0.00    +0.028 A 
ATOM     24  C   LIG    1        1.872  -3.361   2.724  0.00  0.00    +0.028 A 
ATOM     25  C   LIG    1        8.636  -2.938   1.565  0.00  0.00    +0.028 A 
ATOM     26  C   LIG    1        7.327   2.902   1.756  0.00  0.00    +0.028 A 
ATOM     27  C   LIG    1        1.684   1.554   3.230  0.00  0.00    +0.028 A 
ATOM     28  C   LIG    1        2.443  -2.102   2.708  0.00  0.00    +0.047 A 
ENDROOT
BRANCH   1  30
ATOM     29  N   LIG    1       -0.644  -1.046   2.231  0.00  0.00    -0.284 NA
ATOM     30  C   LIG    1        0.282  -0.979   3.243  0.00  0.00    +0.078 C 
ATOM     31  C   LIG    1       -0.162  -0.961   4.573  0.00  0.00    +0.025 C 
ATOM     32  C   LIG    1       -1.525  -1.000   4.860  0.00  0.00    +0.003 C 
ATOM     33  C   LIG    1       -2.442  -1.056   3.813  0.00  0.00    +0.016 C 
ATOM     34  C   LIG    1       -1.977  -1.078   2.499  0.00  0.00    +0.079 C 
BRANCH  29  35
ATOM     35  C   LIG    1       -0.248  -1.066   0.791  0.00  0.00    +0.113 C 
BRANCH  35  36
ATOM     36  C   LIG    1        0.002   0.344   0.221  0.00  0.00    +0.175 C 
BRANCH  36  37
ATOM     37  O   LIG    1       -1.095   1.191   0.531  0.00  0.00    -0.378 OA
BRANCH  37  38
ATOM     38  C   LIG    1       -0.899   2.550   0.171  0.00  0.00    +0.160 C 
BRANCH  38  39
ATOM     39  C   LIG    1       -2.110   3.375   0.641  0.00  0.00    +0.028 C 
BRANCH  39  41
ATOM     40  C   LIG    1       -1.305   4.072   2.996  0.00  0.00    +0.004 C 
ATOM     41  C   LIG    1       -2.364   3.335   2.162  0.00  0.00    -0.001 C 
ENDBRANCH  39  41
ENDBRANCH  38  39
ENDBRANCH  37  38
ENDBRANCH  36  37
ENDBRANCH  35  36
ENDBRANCH  29  35
ENDBRANCH   1  30
BRANCH   7  42
ATOM     42  C   LIG    1        4.880   4.259   2.513  0.00  0.00    +0.078 C 
ATOM     43  N   LIG    1        4.683   5.041   1.402  0.00  0.00    -0.284 NA
ATOM     44  C   LIG    1        4.676   6.398   1.489  0.00  0.00    +0.079 C 
ATOM     45  C   LIG    1        4.849   7.035   2.717  0.00  0.00    +0.016 C 
ATOM     46  C   LIG    1        5.038   6.268   3.863  0.00  0.00    +0.003 C 
ATOM     47  C   LIG    1        5.057   4.878   3.759  0.00  0.00    +0.025 C 
BRANCH  43  48
ATOM     48  C   LIG    1        4.439   4.457   0.051  0.00  0.00    +0.113 C 
BRANCH  48  49
ATOM     49  C   LIG    1        2.939   4.249  -0.253  0.00  0.00    +0.175 C 
BRANCH  49  50
ATOM     50  O   LIG    1        2.248   5.494  -0.299  0.00  0.00    -0.378 OA
BRANCH  50  51
ATOM     51  C   LIG    1        1.456   5.796   0.843  0.00  0.00    +0.160 C 
BRANCH  51  52
ATOM     52  C   LIG    1        1.142   7.301   0.841  0.00  0.00    +0.028 C 
BRANCH  52  53
ATOM     53  C   LIG    1        0.289   7.775   2.033  0.00  0.00    -0.001 C 
ATOM     54  C   LIG    1        0.958   7.589   3.405  0.00  0.00    +0.004 C 
ENDBRANCH  52  53
ENDBRANCH  51  52
ENDBRANCH  50  51
ENDBRANCH  49  50
ENDBRANCH  48  49
ENDBRANCH  43  48
ENDBRANCH   7  42
BRANCH  13  55
ATOM     55  C   LIG    1        9.986  -0.371   1.343  0.00  0.00    +0.078 C 
ATOM     56  N   LIG    1       10.885  -0.484   2.376  0.00  0.00    -0.284 NA
ATOM     57  C   LIG    1       12.221  -0.354   2.161  0.00  0.00    +0.079 C 
ATOM     58  C   LIG    1       12.720  -0.117   0.881  0.00  0.00    +0.016 C 
ATOM     59  C   LIG    1       11.834  -0.011  -0.188  0.00  0.00    +0.003 C 
ATOM     60  C   LIG    1       10.465  -0.137   0.045  0.00  0.00    +0.025 C 
BRANCH  56  61
ATOM     61  C   LIG    1       10.469  -0.755   3.784  0.00  0.00    +0.113 C 
BRANCH  61  62
ATOM     62  C   LIG    1       10.305   0.531   4.618  0.00  0.00    +0.175 C 
BRANCH  62  63
ATOM     63  O   LIG    1        9.039   1.114   4.343  0.00  0.00    -0.378 OA
BRANCH  63  64
ATOM     64  C   LIG    1        8.661   2.229   5.145  0.00  0.00    +0.160 C 
BRANCH  64  65
ATOM     65  C   LIG    1        9.440   3.522   4.821  0.00  0.00    +0.028 C 
BRANCH  65  66
ATOM     66  C   LIG    1       10.636   3.798   5.753  0.00  0.00    -0.001 C 
ATOM     67  C   LIG    1       11.391   5.082   5.387  0.00  0.00    +0.004 C 
ENDBRANCH  65  66
ENDBRANCH  64  65
ENDBRANCH  63  64
ENDBRANCH  62  63
ENDBRANCH  61  62
ENDBRANCH  56  61
ENDBRANCH  13  55
BRANCH  19  68
ATOM     68  C   LIG    1        5.376  -5.629   1.939  0.00  0.00    +0.078 C 
ATOM     69  N   LIG    1        5.082  -6.277   0.764  0.00  0.00    -0.284 NA
ATOM     70  C   LIG    1        5.145  -7.632   0.671  0.00  0.00    +0.079 C 
ATOM     71  C   LIG    1        5.515  -8.405   1.771  0.00  0.00    +0.016 C 
ATOM     72  C   LIG    1        5.819  -7.776   2.976  0.00  0.00    +0.003 C 
ATOM     73  C   LIG    1        5.748  -6.386   3.059  0.00  0.00    +0.025 C 
BRANCH  69  74
ATOM     74  C   LIG    1        4.698  -5.540  -0.475  0.00  0.00    +0.113 C 
BRANCH  74  75
ATOM     75  C   LIG    1        5.911  -5.120  -1.332  0.00  0.00    +0.175 C 
BRANCH  75  76
ATOM     76  O   LIG    1        6.633  -6.251  -1.810  0.00  0.00    -0.378 OA
BRANCH  76  77
ATOM     77  C   LIG    1        7.856  -6.517  -1.133  0.00  0.00    +0.160 C 
BRANCH  77  78
ATOM     78  C   LIG    1        8.431  -7.843  -1.651  0.00  0.00    +0.028 C 
BRANCH  78  79
ATOM     79  C   LIG    1        9.737  -8.245  -0.943  0.00  0.00    -0.001 C 
ATOM     80  C   LIG    1       10.304  -9.579  -1.447  0.00  0.00    +0.004 C 
ENDBRANCH  78  79
ENDBRANCH  77  78
ENDBRANCH  76  77
ENDBRANCH  75  76
ENDBRANCH  74  75
ENDBRANCH  69  74
ENDBRANCH  19  68
TORSDOF 28
