REMARK  Name = DB17062
REMARK                            x       y       z     vdW  Elec       q    Type
REMARK                         _______ _______ _______ _____ _____    ______ ____
ROOT
ATOM      1  N   LIG    1        1.429  -0.099   0.092  0.00  0.00    -0.263 NA
ATOM      2  C   LIG    1        2.240  -0.031  -1.044  0.00  0.00    +0.143 C 
ATOM      3  C   LIG    1        1.809  -0.007  -2.448  0.00  0.00    +0.189 C 
ATOM      4  C   LIG    1        2.971   0.097  -3.406  0.00  0.00    +0.030 A 
ATOM      5  C   LIG    1        4.327   0.151  -2.975  0.00  0.00    +0.030 A 
ATOM      6  C   LIG    1        4.727   0.108  -1.520  0.00  0.00    +0.189 C 
ATOM      7  O   LIG    1        5.904   0.156  -1.157  0.00  0.00    -0.290 OA
ATOM      8  C   LIG    1        5.341   0.248  -3.943  0.00  0.00    +0.012 A 
ATOM      9  C   LIG    1        5.043   0.293  -5.301  0.00  0.00    +0.001 A 
ATOM     10  C   LIG    1        3.720   0.241  -5.722  0.00  0.00    +0.001 A 
ATOM     11  C   LIG    1        2.697   0.143  -4.784  0.00  0.00    +0.012 A 
ATOM     12  O   LIG    1        0.640  -0.066  -2.833  0.00  0.00    -0.290 OA
ATOM     13  C   LIG    1        3.567   0.010  -0.624  0.00  0.00    +0.143 C 
ATOM     14  N   LIG    1        3.580  -0.052   0.771  0.00  0.00    -0.260 NA
ATOM     15  C   LIG    1        2.261  -0.088   1.204  0.00  0.00    +0.107 C 
ATOM     16  C   LIG    1        1.805  -0.122   2.654  0.00  0.00    +0.049 C 
ENDROOT
BRANCH   1  17
ATOM     17  C   LIG    1       -0.038  -0.139   0.137  0.00  0.00    +0.115 C 
BRANCH  17  18
ATOM     18  C   LIG    1       -0.645   1.259  -0.085  0.00  0.00    +0.175 C 
BRANCH  18  20
ATOM     19  C   LIG    1       -0.686   3.467   0.791  0.00  0.00    +0.194 C 
ATOM     20  O   LIG    1       -0.197   2.143   0.935  0.00  0.00    -0.382 OA
ENDBRANCH  18  20
ENDBRANCH  17  18
ENDBRANCH   1  17
BRANCH  14  21
ATOM     21  C   LIG    1        4.760  -0.025   1.646  0.00  0.00    +0.144 C 
BRANCH  21  22
ATOM     22  C   LIG    1        5.328   1.369   1.896  0.00  0.00    +0.073 A 
ATOM     23  C   LIG    1        6.707   1.606   1.873  0.00  0.00    +0.135 A 
ATOM     24  N   LIG    1        7.217   2.849   2.083  0.00  0.00    -0.260 NA
ATOM     25  C   LIG    1        6.332   3.853   2.321  0.00  0.00    +0.130 A 
ATOM     26  C   LIG    1        4.955   3.619   2.349  0.00  0.00    +0.131 A 
ATOM     27  N   LIG    1        4.444   2.377   2.138  0.00  0.00    -0.256 NA
ENDBRANCH  21  22
ENDBRANCH  14  21
TORSDOF 5
