REMARK  Name = DB17060
REMARK                            x       y       z     vdW  Elec       q    Type
REMARK                         _______ _______ _______ _____ _____    ______ ____
ROOT
ATOM      1  C   LIG    1       -0.361   1.517  -0.076  0.00  0.00    +0.082 C 
ATOM      2  C   LIG    1        0.039   0.215  -0.028  0.00  0.00    +0.099 C 
ENDROOT
BRANCH   1   3
ATOM      3  N   LIG    1        0.416   2.647  -0.085  0.00  0.00    -0.352 N 
ATOM      4  H   LIG    1       -0.002   3.566  -0.113  0.00  0.00    +0.143 HD
ATOM      5  H   LIG    1        1.424   2.590  -0.063  0.00  0.00    +0.143 HD
ENDBRANCH   1   3
BRANCH   2   6
ATOM      6  C   LIG    1        1.462  -0.215   0.027  0.00  0.00    +0.099 C 
ATOM      7  C   LIG    1        1.862  -1.517   0.077  0.00  0.00    +0.082 C 
BRANCH   7   8
ATOM      8  N   LIG    1        1.084  -2.647   0.086  0.00  0.00    -0.352 N 
ATOM      9  H   LIG    1        1.502  -3.566   0.117  0.00  0.00    +0.143 HD
ATOM     10  H   LIG    1        0.076  -2.589   0.065  0.00  0.00    +0.143 HD
ENDBRANCH   7   8
BRANCH   6  11
ATOM     11  C   LIG    1        2.506   0.768   0.026  0.00  0.00    +0.103 C 
ATOM     12  N   LIG    1        3.372   1.539   0.022  0.00  0.00    -0.191 NA
ENDBRANCH   6  11
BRANCH   7  13
ATOM     13  S   LIG    1        3.581  -2.017   0.143  0.00  0.00    -0.072 S 
BRANCH  13  14
ATOM     14  C   LIG    1        3.941  -2.599  -1.511  0.00  0.00    +0.035 A 
ATOM     15  C   LIG    1        3.147  -2.203  -2.597  0.00  0.00    +0.017 A 
ATOM     16  C   LIG    1        3.435  -2.645  -3.887  0.00  0.00    +0.001 A 
ATOM     17  C   LIG    1        4.525  -3.483  -4.110  0.00  0.00    +0.002 A 
ATOM     18  C   LIG    1        5.329  -3.876  -3.042  0.00  0.00    +0.024 A 
ATOM     19  C   LIG    1        5.048  -3.438  -1.745  0.00  0.00    +0.039 A 
BRANCH  19  20
ATOM     20  N   LIG    1        5.890  -3.861  -0.712  0.00  0.00    -0.357 N 
ATOM     21  H   LIG    1        5.713  -3.544   0.230  0.00  0.00    +0.142 HD
ATOM     22  H   LIG    1        6.678  -4.456  -0.923  0.00  0.00    +0.142 HD
ENDBRANCH  19  20
ENDBRANCH  13  14
ENDBRANCH   7  13
ENDBRANCH   2   6
BRANCH   2  23
ATOM     23  C   LIG    1       -1.005  -0.769  -0.028  0.00  0.00    +0.103 C 
ATOM     24  N   LIG    1       -1.870  -1.540  -0.025  0.00  0.00    -0.191 NA
ENDBRANCH   2  23
BRANCH   1  25
ATOM     25  S   LIG    1       -2.080   2.017  -0.143  0.00  0.00    -0.072 S 
BRANCH  25  26
ATOM     26  C   LIG    1       -2.440   2.600   1.511  0.00  0.00    +0.035 A 
ATOM     27  C   LIG    1       -3.547   3.439   1.744  0.00  0.00    +0.039 A 
ATOM     28  C   LIG    1       -3.829   3.876   3.042  0.00  0.00    +0.024 A 
ATOM     29  C   LIG    1       -3.026   3.483   4.110  0.00  0.00    +0.002 A 
ATOM     30  C   LIG    1       -1.936   2.645   3.888  0.00  0.00    +0.001 A 
ATOM     31  C   LIG    1       -1.647   2.203   2.598  0.00  0.00    +0.017 A 
BRANCH  27  32
ATOM     32  N   LIG    1       -4.389   3.862   0.712  0.00  0.00    -0.357 N 
ATOM     33  H   LIG    1       -4.213   3.545  -0.231  0.00  0.00    +0.142 HD
ATOM     34  H   LIG    1       -5.178   4.456   0.923  0.00  0.00    +0.142 HD
ENDBRANCH  27  32
ENDBRANCH  25  26
ENDBRANCH   1  25
TORSDOF 11
