REMARK  Name = DB17065
REMARK                            x       y       z     vdW  Elec       q    Type
REMARK                         _______ _______ _______ _____ _____    ______ ____
ROOT
ATOM      1  C   LIG    1        1.271   0.141   0.257  0.00  0.00    -0.025 C 
ATOM      2  C   LIG    1        2.207   1.083   0.482  0.00  0.00    +0.007 C 
ENDROOT
BRANCH   1   8
ATOM      3  C   LIG    1       -1.660  -1.308  -0.827  0.00  0.00    -0.082 C 
ATOM      4  N   LIG    1       -1.260  -1.761   0.582  0.00  0.00    +0.379 N 
ATOM      5  H   LIG    1       -0.426  -2.330   0.534  0.00  0.00    -0.086 HD
ATOM      6  H   LIG    1       -1.979  -2.308   1.034  0.00  0.00    -0.086 HD
ATOM      7  C   LIG    1       -0.948  -0.460   1.330  0.00  0.00    -0.075 C 
ATOM      8  C   LIG    1       -0.231   0.397   0.278  0.00  0.00    -0.007 C 
ATOM      9  C   LIG    1       -0.913   0.016  -1.047  0.00  0.00    -0.013 C 
ENDBRANCH   1   8
BRANCH   2  10
ATOM     10  C   LIG    1        3.671   0.887   0.471  0.00  0.00    +0.011 A 
ATOM     11  C   LIG    1        4.295  -0.344   0.213  0.00  0.00    +0.122 A 
ATOM     12  N   LIG    1        5.645  -0.500   0.209  0.00  0.00    -0.243 NA
ATOM     13  C   LIG    1        6.375   0.613   0.472  0.00  0.00    +0.221 A 
ATOM     14  N   LIG    1        5.883   1.850   0.734  0.00  0.00    -0.243 NA
ATOM     15  C   LIG    1        4.529   1.964   0.729  0.00  0.00    +0.122 A 
ENDBRANCH   2  10
TORSDOF 2
