REMARK  Name = DB17985
REMARK                            x       y       z     vdW  Elec       q    Type
REMARK                         _______ _______ _______ _____ _____    ______ ____
ROOT
ATOM      1  C   LIG    1        1.343  -0.188   0.051  0.00  0.00    -0.014 A 
ATOM      2  C   LIG    1        2.111   0.378   1.074  0.00  0.00    +0.020 A 
ATOM      3  C   LIG    1        3.520   0.270   1.052  0.00  0.00    +0.019 A 
ATOM      4  C   LIG    1        4.377   0.801   2.042  0.00  0.00    +0.124 A 
ATOM      5  N   LIG    1        5.724   0.672   2.011  0.00  0.00    -0.222 NA
ATOM      6  C   LIG    1        6.239  -0.015   0.961  0.00  0.00    +0.220 A 
ATOM      7  N   LIG    1        5.519  -0.540  -0.069  0.00  0.00    -0.214 NA
ATOM      8  C   LIG    1        4.162  -0.414  -0.020  0.00  0.00    +0.076 A 
ATOM      9  C   LIG    1        3.370  -0.975  -1.047  0.00  0.00    +0.029 A 
ATOM     10  C   LIG    1        1.982  -0.856  -0.999  0.00  0.00    +0.011 A 
ENDROOT
BRANCH   1  14
ATOM     11  C   LIG    1       -2.172   1.266  -0.086  0.00  0.00    +0.142 A 
ATOM     12  C   LIG    1       -0.777   1.156  -0.124  0.00  0.00    +0.092 A 
ATOM     13 CL   LIG    1        0.160   2.582  -0.453  0.00  0.00    -0.079 Cl
ATOM     14  C   LIG    1       -0.142  -0.082   0.083  0.00  0.00    +0.026 A 
ATOM     15  C   LIG    1       -0.934  -1.220   0.329  0.00  0.00    +0.092 A 
ATOM     16 CL   LIG    1       -0.191  -2.764   0.618  0.00  0.00    -0.079 Cl
ATOM     17  C   LIG    1       -2.331  -1.131   0.367  0.00  0.00    +0.142 A 
ATOM     18  C   LIG    1       -2.936   0.117   0.159  0.00  0.00    +0.094 A 
BRANCH  11  20
ATOM     19  C   LIG    1       -4.133   2.690  -0.259  0.00  0.00    +0.277 C 
ATOM     20  O   LIG    1       -2.720   2.520  -0.297  0.00  0.00    -0.494 OA
ENDBRANCH  11  20
BRANCH  17  21
ATOM     21  O   LIG    1       -3.038  -2.294   0.616  0.00  0.00    -0.494 OA
ATOM     22  C   LIG    1       -4.460  -2.258   0.673  0.00  0.00    +0.277 C 
ENDBRANCH  17  21
ENDBRANCH   1  14
BRANCH   6  23
ATOM     23  N   LIG    1        7.637  -0.135   0.953  0.00  0.00    -0.282 N 
ATOM     24  H   LIG    1        8.096   0.508   1.582  0.00  0.00    +0.155 HD
BRANCH  23  25
ATOM     25  C   LIG    1        8.527  -0.923   0.187  0.00  0.00    +0.058 A 
ATOM     26  C   LIG    1        8.282  -2.282  -0.145  0.00  0.00    +0.055 A 
ATOM     27  C   LIG    1        9.229  -2.981  -0.914  0.00  0.00    +0.025 A 
ATOM     28  C   LIG    1       10.399  -2.362  -1.339  0.00  0.00    +0.002 A 
ATOM     29  C   LIG    1       10.654  -1.043  -0.990  0.00  0.00    +0.005 A 
ATOM     30  C   LIG    1        9.736  -0.322  -0.224  0.00  0.00    -0.027 A 
ATOM     31  C   LIG    1       10.075   1.125   0.128  0.00  0.00    +0.046 C 
BRANCH  26  32
ATOM     32  N   LIG    1        7.134  -2.922   0.376  0.00  0.00    -0.280 N 
ATOM     33  H   LIG    1        6.676  -2.400   1.109  0.00  0.00    +0.155 HD
ATOM     34  C   LIG    1        6.497  -4.040  -0.035  0.00  0.00    +0.241 C 
ATOM     35  O   LIG    1        6.832  -4.737  -0.995  0.00  0.00    -0.271 OA
BRANCH  34  36
ATOM     36  C   LIG    1        5.340  -4.331   0.781  0.00  0.00    +0.060 C 
ATOM     37  C   LIG    1        4.534  -5.385   0.556  0.00  0.00    +0.013 C 
ENDBRANCH  34  36
ENDBRANCH  26  32
ENDBRANCH  23  25
ENDBRANCH   6  23
TORSDOF 7
