REMARK  Name = DB17049
REMARK                            x       y       z     vdW  Elec       q    Type
REMARK                         _______ _______ _______ _____ _____    ______ ____
ROOT
ATOM      1  C   LIG    1        0.135   1.999  -1.334  0.00  0.00    +0.003 C 
ATOM      2  C   LIG    1        1.573   2.639  -1.555  0.00  0.00    -0.020 C 
ATOM      3  C   LIG    1        2.673   1.529  -1.529  0.00  0.00    +0.012 C 
ATOM      4  C   LIG    1        1.870   3.655  -0.409  0.00  0.00    +0.009 C 
ATOM      5  C   LIG    1        3.278   4.260  -0.491  0.00  0.00    +0.016 C 
ATOM      6  C   LIG    1        3.615   4.956  -1.849  0.00  0.00    +0.015 C 
ATOM      7  C   LIG    1        3.032   6.397  -1.866  0.00  0.00    +0.021 C 
ATOM      8  C   LIG    1        5.162   5.146  -2.017  0.00  0.00    -0.026 C 
ATOM      9  C   LIG    1        5.959   5.464  -0.962  0.00  0.00    +0.059 C 
ATOM     10  C   LIG    1        7.391   5.787  -1.037  0.00  0.00    +0.221 C 
ATOM     11  O   LIG    1        8.074   5.957  -0.026  0.00  0.00    -0.284 OA
ATOM     12  C   LIG    1        7.882   5.929  -2.429  0.00  0.00    +0.167 C 
ATOM     13  C   LIG    1        7.148   5.615  -3.531  0.00  0.00    +0.002 C 
ATOM     14  C   LIG    1        7.713   5.857  -4.932  0.00  0.00    +0.048 C 
ATOM     15  C   LIG    1        5.775   5.111  -3.354  0.00  0.00    -0.014 C 
ATOM     16  C   LIG    1        5.061   4.607  -4.377  0.00  0.00    +0.008 C 
ATOM     17  C   LIG    1        3.745   4.046  -4.207  0.00  0.00    +0.001 C 
ATOM     18  C   LIG    1        3.024   4.131  -3.062  0.00  0.00    -0.053 C 
ATOM     19  C   LIG    1        1.609   3.455  -2.915  0.00  0.00    -0.004 C 
ATOM     20  C   LIG    1        0.538   4.590  -3.038  0.00  0.00    +0.016 C 
ATOM     21  C   LIG    1        1.296   2.440  -4.064  0.00  0.00    +0.012 C 
ATOM     22  C   LIG    1       -0.038   1.671  -3.955  0.00  0.00    +0.008 C 
ATOM     23  C   LIG    1       -0.517   1.201  -2.539  0.00  0.00    -0.029 C 
ATOM     24  C   LIG    1       -2.066   1.402  -2.508  0.00  0.00    +0.011 C 
ATOM     25  C   LIG    1       -0.205  -0.319  -2.431  0.00  0.00    +0.008 C 
ATOM     26  C   LIG    1       -0.730  -0.999  -1.152  0.00  0.00    +0.018 C 
ATOM     27  C   LIG    1       -0.319  -0.292   0.179  0.00  0.00    +0.065 C 
ATOM     28  C   LIG    1       -1.373  -0.623   1.278  0.00  0.00    +0.023 C 
ATOM     29  C   LIG    1       -0.058   1.254   0.045  0.00  0.00    +0.022 C 
ENDROOT
BRANCH  12  30
ATOM     30  O   LIG    1        9.157   6.410  -2.486  0.00  0.00    -0.503 OA
ATOM     31  H   LIG    1        9.482   6.555  -1.594  0.00  0.00    +0.292 HD
ENDBRANCH  12  30
BRANCH  27  32
ATOM     32  C   LIG    1        1.025  -0.937   0.657  0.00  0.00    +0.313 C 
ATOM     33  O   LIG    1        1.380  -0.870   1.838  0.00  0.00    -0.250 OA
BRANCH  32  34
ATOM     34  O   LIG    1        1.885  -1.246  -0.346  0.00  0.00    -0.468 OA
ATOM     35  C   LIG    1        3.179  -1.763  -0.071  0.00  0.00    +0.280 C 
ENDBRANCH  32  34
ENDBRANCH  27  32
TORSDOF 3
