REMARK  Name = DB17042
REMARK                            x       y       z     vdW  Elec       q    Type
REMARK                         _______ _______ _______ _____ _____    ______ ____
ROOT
ATOM      1  C   LIG    1        1.397   0.032   0.008  0.00  0.00    +0.141 A 
ATOM      2  C   LIG    1        2.071  -1.204  -0.012  0.00  0.00    +0.078 A 
ATOM      3  C   LIG    1        3.478  -1.250  -0.031  0.00  0.00    +0.042 A 
ATOM      4  C   LIG    1        4.202  -0.056  -0.006  0.00  0.00    +0.013 A 
ATOM      5  C   LIG    1        3.546   1.170   0.018  0.00  0.00    +0.004 A 
ATOM      6  C   LIG    1        2.155   1.215   0.023  0.00  0.00    +0.047 A 
ENDROOT
BRANCH   3   7
ATOM      7  C   LIG    1        4.227  -2.519  -0.038  0.00  0.00    +0.141 A 
ATOM      8  O   LIG    1        4.475  -2.947   1.228  0.00  0.00    -0.455 OA
ATOM      9  C   LIG    1        5.162  -4.134   1.395  0.00  0.00    +0.139 A 
ATOM     10  C   LIG    1        5.398  -4.548   2.705  0.00  0.00    +0.047 A 
ATOM     11  C   LIG    1        6.085  -5.738   2.940  0.00  0.00    +0.004 A 
ATOM     12  C   LIG    1        6.535  -6.508   1.867  0.00  0.00    +0.001 A 
ATOM     13  C   LIG    1        6.300  -6.092   0.556  0.00  0.00    +0.015 A 
ATOM     14  C   LIG    1        5.609  -4.898   0.300  0.00  0.00    +0.064 A 
ATOM     15  C   LIG    1        5.346  -4.432  -1.101  0.00  0.00    +0.193 A 
ATOM     16  O   LIG    1        5.717  -5.058  -2.094  0.00  0.00    -0.287 OA
ATOM     17  C   LIG    1        4.611  -3.171  -1.157  0.00  0.00    +0.098 A 
ENDBRANCH   3   7
BRANCH   2  18
ATOM     18  N   LIG    1        1.325  -2.390  -0.016  0.00  0.00    -0.355 N 
ATOM     19  H   LIG    1        0.317  -2.340   0.014  0.00  0.00    +0.142 HD
ATOM     20  H   LIG    1        1.803  -3.280  -0.013  0.00  0.00    +0.142 HD
ENDBRANCH   2  18
BRANCH   1  22
ATOM     21  C   LIG    1       -0.707   1.247   0.013  0.00  0.00    +0.277 C 
ATOM     22  O   LIG    1        0.011   0.017   0.014  0.00  0.00    -0.493 OA
ENDBRANCH   1  22
TORSDOF 3
