REMARK  Name = DB17557
REMARK                            x       y       z     vdW  Elec       q    Type
REMARK                         _______ _______ _______ _____ _____    ______ ____
ROOT
ATOM      1  C   LIG    1        1.736  -0.029  -0.080  0.00  0.00    +0.075 A 
ATOM      2  N   LIG    1        2.360   0.921  -0.826  0.00  0.00    -0.230 NA
ATOM      3  C   LIG    1        3.717   0.946  -0.900  0.00  0.00    +0.147 A 
ATOM      4  C   LIG    1        4.530  -0.000  -0.210  0.00  0.00    +0.129 A 
ATOM      5  N   LIG    1        5.897   0.023  -0.281  0.00  0.00    -0.248 NA
ATOM      6  C   LIG    1        6.578  -0.923   0.414  0.00  0.00    +0.131 A 
ATOM      7  C   LIG    1        5.924  -1.887   1.177  0.00  0.00    +0.131 A 
ATOM      8  N   LIG    1        4.571  -1.932   1.268  0.00  0.00    -0.252 NA
ATOM      9  C   LIG    1        3.865  -0.993   0.576  0.00  0.00    +0.095 A 
ATOM     10  C   LIG    1        2.452  -0.995   0.636  0.00  0.00    +0.058 A 
ENDROOT
BRANCH   1  14
ATOM     11  C   LIG    1       -2.572   0.111  -0.028  0.00  0.00    -0.044 A 
ATOM     12  C   LIG    1       -1.832   1.292  -0.129  0.00  0.00    +0.004 A 
ATOM     13  C   LIG    1       -0.441   1.247  -0.144  0.00  0.00    +0.010 A 
ATOM     14  C   LIG    1        0.242   0.025  -0.059  0.00  0.00    +0.000 A 
ATOM     15  C   LIG    1       -0.511  -1.152   0.043  0.00  0.00    +0.010 A 
ATOM     16  C   LIG    1       -1.902  -1.112   0.058  0.00  0.00    +0.004 A 
BRANCH  11  20
ATOM     17  N   LIG    1       -6.707  -1.161   0.085  0.00  0.00    -0.181 NA
ATOM     18  C   LIG    1       -6.265  -0.558  -1.198  0.00  0.00    +0.109 C 
ATOM     19  C   LIG    1       -4.725  -0.527  -1.264  0.00  0.00    +0.025 C 
ATOM     20  C   LIG    1       -4.102   0.155  -0.018  0.00  0.00    +0.022 C 
ATOM     21  C   LIG    1       -4.707  -0.363   1.314  0.00  0.00    +0.025 C 
ATOM     22  C   LIG    1       -6.249  -0.400   1.274  0.00  0.00    +0.109 C 
BRANCH  17  24
ATOM     23  C   LIG    1       -9.350  -0.014   0.001  0.00  0.00    +0.215 C 
ATOM     24  S   LIG    1       -8.411  -1.648   0.125  0.00  0.00    +0.029 S 
ATOM     25  O   LIG    1       -8.690  -2.417  -1.092  0.00  0.00    -0.158 OA
ATOM     26  O   LIG    1       -8.686  -2.227   1.445  0.00  0.00    -0.158 OA
ENDBRANCH  17  24
ENDBRANCH  11  20
ENDBRANCH   1  14
BRANCH   3  27
ATOM     27  N   LIG    1        4.320   1.949  -1.686  0.00  0.00    -0.325 N 
ATOM     28  H   LIG    1        5.323   2.052  -1.620  0.00  0.00    +0.148 HD
BRANCH  27  29
ATOM     29  C   LIG    1        3.568   3.038  -2.307  0.00  0.00    +0.132 C 
BRANCH  29  30
ATOM     30  C   LIG    1        3.434   4.275  -1.400  0.00  0.00    +0.118 C 
ATOM     31  O   LIG    1        4.728   4.834  -1.176  0.00  0.00    -0.379 OA
ATOM     32  C   LIG    1        4.742   5.922  -0.257  0.00  0.00    +0.141 C 
ATOM     33  C   LIG    1        3.912   7.099  -0.809  0.00  0.00    -0.054 C 
ATOM     34  N   LIG    1        2.503   6.604  -1.179  0.00  0.00    +0.382 N 
ATOM     35  H   LIG    1        2.002   6.391  -0.327  0.00  0.00    -0.086 HD
ATOM     36  H   LIG    1        1.992   7.339  -1.647  0.00  0.00    -0.086 HD
ATOM     37  C   LIG    1        2.528   5.340  -2.059  0.00  0.00    -0.049 C 
ENDBRANCH  29  30
ENDBRANCH  27  29
ENDBRANCH   3  27
TORSDOF 6
