REMARK  Name = DB17769
REMARK                            x       y       z     vdW  Elec       q    Type
REMARK                         _______ _______ _______ _____ _____    ______ ____
ROOT
ATOM      1  C   LIG    1        1.367   0.569  -0.620  0.00  0.00    +0.130 C 
ATOM      2  C   LIG    1        2.611   0.980   0.252  0.00  0.00    +0.044 C 
ATOM      3  C   LIG    1        3.526   2.015  -0.452  0.00  0.00    +0.013 C 
ATOM      4  C   LIG    1        2.184   1.397   1.694  0.00  0.00    +0.130 C 
ATOM      5  C   LIG    1        1.820   0.154   2.541  0.00  0.00    +0.152 C 
ATOM      6  C   LIG    1        0.921   0.387   3.759  0.00  0.00    +0.310 C 
ATOM      7  O   LIG    1        0.211   1.386   3.885  0.00  0.00    -0.251 OA
ATOM      8  O   LIG    1        0.997  -0.655   4.613  0.00  0.00    -0.461 OA
ATOM      9  C   LIG    1        0.039  -0.873   5.654  0.00  0.00    +0.185 C 
ATOM     10  C   LIG    1       -0.491  -2.329   5.474  0.00  0.00    +0.078 C 
ATOM     11  C   LIG    1       -0.862  -2.630   4.015  0.00  0.00    -0.014 C 
ATOM     12  C   LIG    1       -2.057  -2.591   3.378  0.00  0.00    -0.054 C 
ATOM     13  C   LIG    1       -3.341  -2.119   4.040  0.00  0.00    +0.043 C 
ATOM     14  C   LIG    1       -2.086  -2.836   1.943  0.00  0.00    +0.006 C 
ATOM     15  C   LIG    1       -1.344  -2.141   1.054  0.00  0.00    +0.047 C 
ATOM     16  C   LIG    1       -1.402  -2.388  -0.380  0.00  0.00    +0.159 C 
ATOM     17  O   LIG    1       -1.628  -3.504  -0.852  0.00  0.00    -0.292 OA
ATOM     18  C   LIG    1       -1.222  -1.179  -1.320  0.00  0.00    +0.057 C 
ATOM     19  C   LIG    1       -2.403  -1.070  -2.309  0.00  0.00    +0.016 C 
ATOM     20  C   LIG    1        0.138  -1.192  -2.072  0.00  0.00    +0.017 C 
ATOM     21  C   LIG    1        1.427  -0.857  -1.252  0.00  0.00    +0.026 C 
ENDROOT
BRANCH   4  22
ATOM     22  O   LIG    1        3.207   2.094   2.385  0.00  0.00    -0.391 OA
ATOM     23  H   LIG    1        3.455   2.865   1.869  0.00  0.00    +0.210 HD
ENDBRANCH   4  22
BRANCH   9  24
ATOM     24  C   LIG    1        0.704  -0.589   7.024  0.00  0.00    +0.042 C 
ATOM     25  C   LIG    1        1.239   0.843   7.186  0.00  0.00    +0.007 C 
ENDBRANCH   9  24
BRANCH   1  26
ATOM     26  O   LIG    1        1.110   1.511  -1.670  0.00  0.00    -0.345 OA
BRANCH  26  30
ATOM     27  C   LIG    1       -2.067   4.217  -1.859  0.00  0.00    +0.139 C 
ATOM     28  C   LIG    1       -0.664   4.729  -2.276  0.00  0.00    -0.003 C 
ATOM     29  C   LIG    1        0.321   3.558  -2.551  0.00  0.00    +0.159 C 
ATOM     30  C   LIG    1        0.286   2.595  -1.352  0.00  0.00    +0.278 C 
ATOM     31  O   LIG    1       -1.031   2.144  -1.160  0.00  0.00    -0.343 OA
ATOM     32  C   LIG    1       -1.943   3.160  -0.732  0.00  0.00    +0.146 C 
ATOM     33  C   LIG    1       -3.270   2.453  -0.419  0.00  0.00    +0.040 C 
BRANCH  28  34
ATOM     34  N   LIG    1       -0.836   5.685  -3.496  0.00  0.00    +0.381 N 
ATOM     35  H   LIG    1       -1.694   6.181  -3.301  0.00  0.00    -0.082 HD
ATOM     36  C   LIG    1       -1.055   5.010  -4.867  0.00  0.00    -0.096 C 
ATOM     37  C   LIG    1        0.245   6.782  -3.582  0.00  0.00    -0.096 C 
ENDBRANCH  28  34
BRANCH  29  38
ATOM     38  O   LIG    1        1.643   4.009  -2.782  0.00  0.00    -0.388 OA
ATOM     39  H   LIG    1        2.186   3.251  -3.012  0.00  0.00    +0.210 HD
ENDBRANCH  29  38
BRANCH  27  40
ATOM     40  O   LIG    1       -3.007   5.272  -1.624  0.00  0.00    -0.347 OA
BRANCH  40  41
ATOM     41  C   LIG    1       -2.821   6.106  -0.512  0.00  0.00    +0.254 C 
ATOM     42  O   LIG    1       -3.605   5.692   0.580  0.00  0.00    -0.346 OA
ATOM     43  C   LIG    1       -5.024   5.785   0.388  0.00  0.00    +0.150 C 
ATOM     44  C   LIG    1       -5.699   5.229   1.653  0.00  0.00    +0.041 C 
ATOM     45  C   LIG    1       -5.447   7.240   0.083  0.00  0.00    +0.178 C 
ATOM     46  C   LIG    1       -4.674   7.787  -1.142  0.00  0.00    +0.096 C 
ATOM     47  C   LIG    1       -4.933   9.289  -1.382  0.00  0.00    +0.044 C 
ATOM     48  C   LIG    1       -3.159   7.552  -0.920  0.00  0.00    +0.098 C 
BRANCH  46  49
ATOM     49  O   LIG    1       -5.078   7.138  -2.338  0.00  0.00    -0.386 OA
ATOM     50  H   LIG    1       -4.485   7.402  -3.045  0.00  0.00    +0.210 HD
ENDBRANCH  46  49
BRANCH  45  51
ATOM     51  O   LIG    1       -6.859   7.308  -0.130  0.00  0.00    -0.367 OA
BRANCH  51  52
ATOM     52  C   LIG    1       -7.563   8.268   0.651  0.00  0.00    +0.195 C 
BRANCH  52  53
ATOM     53  C   LIG    1       -9.004   8.349   0.174  0.00  0.00    -0.022 A 
ATOM     54  C   LIG    1       -9.279   8.533  -1.184  0.00  0.00    +0.009 A 
ATOM     55  C   LIG    1      -10.598   8.612  -1.623  0.00  0.00    +0.038 A 
ATOM     56  C   LIG    1      -11.639   8.509  -0.704  0.00  0.00    +0.123 A 
ATOM     57  F   LIG    1      -12.920   8.585  -1.130  0.00  0.00    -0.205 F 
ATOM     58  C   LIG    1      -11.372   8.329   0.652  0.00  0.00    +0.038 A 
ATOM     59  C   LIG    1      -10.053   8.250   1.092  0.00  0.00    +0.009 A 
ENDBRANCH  52  53
ENDBRANCH  51  52
ENDBRANCH  45  51
ENDBRANCH  40  41
ENDBRANCH  27  40
ENDBRANCH  26  30
ENDBRANCH   1  26
BRANCH  10  60
ATOM     60  C   LIG    1       -1.542  -2.770   6.531  0.00  0.00    +0.174 C 
BRANCH  60  61
ATOM     61  O   LIG    1       -0.950  -3.056   7.797  0.00  0.00    -0.348 OA
BRANCH  61  62
ATOM     62  C   LIG    1       -0.422  -4.339   7.957  0.00  0.00    +0.282 C 
ATOM     63  C   LIG    1        0.453  -4.312   9.220  0.00  0.00    +0.205 C 
ATOM     64  C   LIG    1        1.073  -5.722   9.429  0.00  0.00    +0.182 C 
ATOM     65  C   LIG    1       -0.079  -6.747   9.511  0.00  0.00    +0.174 C 
ATOM     66  C   LIG    1       -0.993  -6.627   8.263  0.00  0.00    +0.149 C 
ATOM     67  C   LIG    1       -2.230  -7.538   8.331  0.00  0.00    +0.041 C 
ATOM     68  O   LIG    1       -1.457  -5.276   8.134  0.00  0.00    -0.343 OA
BRANCH  63  69
ATOM     69  O   LIG    1        1.393  -3.239   9.159  0.00  0.00    -0.372 OA
ATOM     70  C   LIG    1        2.028  -2.908  10.387  0.00  0.00    +0.194 C 
ENDBRANCH  63  69
BRANCH  64  71
ATOM     71  O   LIG    1        1.942  -6.117   8.360  0.00  0.00    -0.374 OA
ATOM     72  C   LIG    1        3.235  -5.528   8.334  0.00  0.00    +0.194 C 
ENDBRANCH  64  71
BRANCH  65  73
ATOM     73  O   LIG    1        0.408  -8.061   9.723  0.00  0.00    -0.387 OA
ATOM     74  H   LIG    1       -0.329  -8.624   9.971  0.00  0.00    +0.210 HD
ENDBRANCH  65  73
ENDBRANCH  61  62
ENDBRANCH  60  61
ENDBRANCH  10  60
BRANCH  21  75
ATOM     75  C   LIG    1        2.700  -1.054  -2.129  0.00  0.00    +0.076 C 
BRANCH  75  76
ATOM     76  C   LIG    1        3.066  -2.503  -2.482  0.00  0.00    +0.223 C 
ATOM     77  O   LIG    1        2.478  -3.470  -1.998  0.00  0.00    -0.301 OA
ENDBRANCH  75  76
ENDBRANCH  21  75
TORSDOF 20
