REMARK  Name = DB17018
REMARK                            x       y       z     vdW  Elec       q    Type
REMARK                         _______ _______ _______ _____ _____    ______ ____
ROOT
ATOM      1  C   LIG    1       -2.790  -0.617  -0.345  0.00  0.00    -0.044 A 
ATOM      2  C   LIG    1       -2.083   0.445  -0.917  0.00  0.00    +0.007 A 
ATOM      3  C   LIG    1       -0.695   0.493  -0.825  0.00  0.00    +0.046 A 
ATOM      4  C   LIG    1        0.007  -0.514  -0.164  0.00  0.00    +0.120 A 
ATOM      5  C   LIG    1       -0.703  -1.577   0.416  0.00  0.00    +0.046 A 
ATOM      6  C   LIG    1       -2.092  -1.626   0.324  0.00  0.00    +0.007 A 
ENDROOT
BRANCH   1  10
ATOM      7  N   LIG    1       -6.969   0.379  -1.401  0.00  0.00    -0.314 N 
ATOM      8  C   LIG    1       -6.555   0.451   0.017  0.00  0.00    +0.107 C 
ATOM      9  C   LIG    1       -5.025   0.507   0.211  0.00  0.00    +0.027 C 
ATOM     10  C   LIG    1       -4.316  -0.682  -0.459  0.00  0.00    +0.022 C 
ATOM     11  C   LIG    1       -4.798  -0.823  -1.912  0.00  0.00    +0.027 C 
ATOM     12  C   LIG    1       -6.337  -0.809  -2.018  0.00  0.00    +0.107 C 
BRANCH   7  16
ATOM     13  C   LIG    1      -11.042  -0.106  -3.902  0.00  0.00    +0.340 A 
ATOM     14  N   LIG    1      -10.150   0.455  -3.019  0.00  0.00    -0.161 N 
ATOM     15  N   LIG    1       -8.924   0.022  -2.680  0.00  0.00    -0.146 NA
ATOM     16  C   LIG    1       -8.261   0.785  -1.760  0.00  0.00    +0.142 A 
ATOM     17  C   LIG    1       -8.818   1.965  -1.233  0.00  0.00    +0.049 A 
ATOM     18  C   LIG    1      -10.097   2.384  -1.612  0.00  0.00    +0.053 A 
ATOM     19  C   LIG    1      -10.796   1.599  -2.539  0.00  0.00    +0.181 A 
ATOM     20  N   LIG    1      -12.018   1.704  -3.114  0.00  0.00    -0.125 NA
ATOM     21  N   LIG    1      -12.149   0.617  -3.967  0.00  0.00    -0.090 NA
BRANCH  13  23
ATOM     22  C   LIG    1      -11.796  -1.717  -5.487  0.00  0.00    +0.280 C 
ATOM     23  O   LIG    1      -10.777  -1.261  -4.602  0.00  0.00    -0.465 OA
ENDBRANCH  13  23
ENDBRANCH   7  16
ENDBRANCH   1  10
BRANCH   4  24
ATOM     24  O   LIG    1        1.383  -0.386  -0.131  0.00  0.00    -0.494 OA
BRANCH  24  25
ATOM     25  C   LIG    1        2.167  -1.395   0.502  0.00  0.00    +0.210 C 
BRANCH  25  26
ATOM     26  C   LIG    1        3.668  -1.070   0.356  0.00  0.00    -0.036 C 
BRANCH  26  27
ATOM     27  N   LIG    1        4.058  -0.702  -1.103  0.00  0.00    +0.390 N 
ATOM     28  H   LIG    1        3.434   0.019  -1.439  0.00  0.00    -0.081 HD
ATOM     29  C   LIG    1        5.505  -0.138  -1.181  0.00  0.00    +0.016 C 
ATOM     30  C   LIG    1        5.476   1.321  -0.696  0.00  0.00    -0.004 C 
ATOM     31  C   LIG    1        6.164  -0.181  -2.602  0.00  0.00    +0.201 C 
ATOM     32  O   LIG    1        7.268   0.339  -2.784  0.00  0.00    -0.277 OA
ATOM     33  N   LIG    1        5.499  -0.840  -3.601  0.00  0.00    -0.308 N 
ATOM     34  C   LIG    1        6.010  -0.772  -4.976  0.00  0.00    +0.132 C 
ATOM     35  C   LIG    1        4.167  -1.448  -3.458  0.00  0.00    +0.089 C 
ATOM     36  C   LIG    1        3.891  -1.915  -2.028  0.00  0.00    -0.058 C 
ENDBRANCH  26  27
ENDBRANCH  25  26
ENDBRANCH  24  25
ENDBRANCH   4  24
TORSDOF 7
