REMARK  Name = DB17100
REMARK                            x       y       z     vdW  Elec       q    Type
REMARK                         _______ _______ _______ _____ _____    ______ ____
ROOT
ATOM      1  C   LIG    1       -2.655   2.424   0.362  0.00  0.00    +0.275 C 
ATOM      2  N   LIG    1       -1.755   1.415   0.238  0.00  0.00    -0.216 N 
ATOM      3  H   LIG    1       -2.115   0.535  -0.102  0.00  0.00    +0.161 HD
ATOM      4  C   LIG    1       -0.436   1.447   0.526  0.00  0.00    +0.407 C 
ATOM      5  O   LIG    1        0.199   2.424   0.939  0.00  0.00    -0.226 OA
ATOM      6  O   LIG    1       -2.396   3.560   0.770  0.00  0.00    -0.268 OA
ENDROOT
BRANCH   1  14
ATOM      7  C   LIG    1       -8.905   4.643  -0.169  0.00  0.00    +0.179 C 
ATOM      8  N   LIG    1       -7.595   3.988  -0.123  0.00  0.00    -0.199 N 
ATOM      9  C   LIG    1       -7.531   2.684  -0.542  0.00  0.00    +0.353 A 
ATOM     10  O   LIG    1       -8.426   1.949  -0.967  0.00  0.00    -0.244 OA
ATOM     11  N   LIG    1       -6.200   2.189  -0.436  0.00  0.00    -0.232 N 
ATOM     12  C   LIG    1       -5.674   0.958  -0.734  0.00  0.00    +0.210 A 
ATOM     13  N   LIG    1       -4.386   0.877  -0.499  0.00  0.00    -0.228 NA
ATOM     14  C   LIG    1       -4.008   2.067  -0.030  0.00  0.00    +0.172 A 
ATOM     15  C   LIG    1       -5.125   2.914   0.020  0.00  0.00    +0.197 A 
ATOM     16  N   LIG    1       -5.331   4.208   0.405  0.00  0.00    -0.110 NA
ATOM     17  N   LIG    1       -6.520   4.741   0.341  0.00  0.00    -0.060 NA
ENDBRANCH   1  14
BRANCH   4  18
ATOM     18  O   LIG    1        0.045   0.181   0.272  0.00  0.00    -0.446 OA
BRANCH  18  19
ATOM     19  C   LIG    1        1.434  -0.028   0.522  0.00  0.00    +0.264 C 
BRANCH  19  20
ATOM     20  C   LIG    1        1.892  -1.459   0.248  0.00  0.00    -0.036 C 
ATOM     21  C   LIG    1        3.364  -1.742   0.564  0.00  0.00    +0.034 C 
ATOM     22  C   LIG    1        3.838  -3.050  -0.103  0.00  0.00    +0.012 C 
ATOM     23  C   LIG    1        2.855  -4.199   0.223  0.00  0.00    +0.018 C 
ATOM     24  C   LIG    1        1.460  -3.906  -0.383  0.00  0.00    +0.035 C 
ATOM     25  C   LIG    1        1.059  -2.448  -0.163  0.00  0.00    -0.024 C 
BRANCH  23  26
ATOM     26  C   LIG    1        3.368  -5.598  -0.150  0.00  0.00    -0.076 C 
ATOM     27  C   LIG    1        4.386  -5.829  -1.003  0.00  0.00    +0.007 C 
ATOM     28  C   LIG    1        2.643  -6.753   0.525  0.00  0.00    +0.039 C 
ENDBRANCH  23  26
ENDBRANCH  19  20
ENDBRANCH  18  19
ENDBRANCH   4  18
TORSDOF 5
