REMARK  Name = DB17993
REMARK                            x       y       z     vdW  Elec       q    Type
REMARK                         _______ _______ _______ _____ _____    ______ ____
ROOT
ATOM      1  C   LIG    1        1.629  -0.020  -0.014  0.00  0.00    -0.021 C 
ATOM      2  C   LIG    1        2.229   0.735  -1.230  0.00  0.00    -0.068 C 
ATOM      3  N   LIG    1        2.370   2.200  -0.788  0.00  0.00    +0.378 N 
ATOM      4  H   LIG    1        1.454   2.622  -0.841  0.00  0.00    -0.082 HD
ATOM      5  C   LIG    1        3.328   3.024  -1.667  0.00  0.00    -0.096 C 
ATOM      6  C   LIG    1        2.786   2.116   0.687  0.00  0.00    -0.078 C 
ATOM      7  C   LIG    1        2.260   0.760   1.174  0.00  0.00    -0.009 C 
ENDROOT
BRANCH   1   8
ATOM      8  C   LIG    1        1.994  -1.523  -0.016  0.00  0.00    -0.040 A 
ATOM      9  C   LIG    1        2.214  -2.217  -1.217  0.00  0.00    +0.049 A 
ATOM     10  C   LIG    1        2.513  -3.581  -1.211  0.00  0.00    +0.117 A 
ATOM     11  C   LIG    1        2.585  -4.273  -0.003  0.00  0.00    +0.045 A 
ATOM     12  C   LIG    1        2.351  -3.603   1.196  0.00  0.00    +0.004 A 
ATOM     13  C   LIG    1        2.051  -2.241   1.189  0.00  0.00    +0.004 A 
BRANCH  10  14
ATOM     14  O   LIG    1        2.729  -4.237  -2.393  0.00  0.00    -0.507 OA
ATOM     15  H   LIG    1        2.920  -5.171  -2.274  0.00  0.00    +0.292 HD
ENDBRANCH  10  14
ENDBRANCH   1   8
BRANCH   1  16
ATOM     16  C   LIG    1        0.066   0.071  -0.001  0.00  0.00    +0.009 C 
BRANCH  16  18
ATOM     17  C   LIG    1       -2.117   1.411   0.100  0.00  0.00    +0.004 C 
ATOM     18  C   LIG    1       -0.588   1.472  -0.010  0.00  0.00    -0.003 C 
ENDBRANCH  16  18
ENDBRANCH   1  16
TORSDOF 4
