REMARK  Name = DB17834
REMARK                            x       y       z     vdW  Elec       q    Type
REMARK                         _______ _______ _______ _____ _____    ______ ____
ROOT
ATOM      1  C   LIG    1       -1.651  -1.051  -1.055  0.00  0.00    +0.193 C 
ATOM      2  C   LIG    1       -2.037  -1.867   0.192  0.00  0.00    +0.194 C 
ATOM      3  C   LIG    1       -1.388  -1.360   1.504  0.00  0.00    +0.194 C 
ATOM      4  C   LIG    1        0.110  -0.923   1.371  0.00  0.00    +0.195 C 
ATOM      5  C   LIG    1        0.483  -0.272   0.008  0.00  0.00    +0.205 C 
ATOM      6  C   LIG    1       -0.111  -1.011  -1.214  0.00  0.00    +0.239 C 
ENDROOT
BRANCH   2   7
ATOM      7  O   LIG    1       -3.453  -1.844   0.333  0.00  0.00    -0.278 OA
BRANCH   7   8
ATOM      8  P   LIG    1       -4.366  -3.176   0.088  0.00  0.00    +0.483 P 
ATOM      9  O   LIG    1       -3.667  -4.341  -0.522  0.00  0.00    -0.227 OA
BRANCH   8  10
ATOM     10  O   LIG    1       -5.631  -2.621  -0.778  0.00  0.00    -0.249 OA
BRANCH  10  11
ATOM     11  C   LIG    1       -6.346  -1.466  -0.370  0.00  0.00    +0.409 C 
BRANCH  11  12
ATOM     12  O   LIG    1       -6.197  -0.399  -1.301  0.00  0.00    -0.437 OA
BRANCH  12  13
ATOM     13  C   LIG    1       -6.776  -0.458  -2.522  0.00  0.00    +0.309 C 
ATOM     14  O   LIG    1       -7.433  -1.405  -2.963  0.00  0.00    -0.251 OA
BRANCH  13  15
ATOM     15  C   LIG    1       -6.529   0.820  -3.334  0.00  0.00    +0.117 C 
ATOM     16  C   LIG    1       -7.128   0.800  -4.753  0.00  0.00    +0.015 C 
ENDBRANCH  13  15
ENDBRANCH  12  13
ENDBRANCH  11  12
ENDBRANCH  10  11
ENDBRANCH   8  10
BRANCH   8  17
ATOM     17  O   LIG    1       -5.015  -3.447   1.561  0.00  0.00    -0.249 OA
BRANCH  17  18
ATOM     18  C   LIG    1       -5.959  -4.491   1.754  0.00  0.00    +0.409 C 
BRANCH  18  19
ATOM     19  O   LIG    1       -5.428  -5.771   1.427  0.00  0.00    -0.437 OA
BRANCH  19  20
ATOM     20  C   LIG    1       -4.541  -6.380   2.241  0.00  0.00    +0.309 C 
ATOM     21  O   LIG    1       -4.163  -5.958   3.336  0.00  0.00    -0.251 OA
BRANCH  20  22
ATOM     22  C   LIG    1       -4.020  -7.689   1.639  0.00  0.00    +0.117 C 
ATOM     23  C   LIG    1       -2.881  -8.349   2.438  0.00  0.00    +0.015 C 
ENDBRANCH  20  22
ENDBRANCH  19  20
ENDBRANCH  18  19
ENDBRANCH  17  18
ENDBRANCH   8  17
ENDBRANCH   7   8
ENDBRANCH   2   7
BRANCH   1  24
ATOM     24  O   LIG    1       -2.283  -1.628  -2.200  0.00  0.00    -0.370 OA
BRANCH  24  25
ATOM     25  C   LIG    1       -2.964  -0.736  -3.077  0.00  0.00    +0.160 C 
BRANCH  25  26
ATOM     26  C   LIG    1       -2.007   0.196  -3.845  0.00  0.00    +0.028 C 
BRANCH  26  27
ATOM     27  C   LIG    1       -2.699   1.180  -4.806  0.00  0.00    +0.002 C 
BRANCH  27  28
ATOM     28  C   LIG    1       -3.421   0.511  -5.990  0.00  0.00    +0.000 C 
BRANCH  28  29
ATOM     29  C   LIG    1       -4.047   1.530  -6.957  0.00  0.00    -0.000 C 
BRANCH  29  30
ATOM     30  C   LIG    1       -4.802   0.867  -8.123  0.00  0.00    -0.000 C 
BRANCH  30  32
ATOM     31  C   LIG    1       -6.200   1.229 -10.239  0.00  0.00    +0.004 C 
ATOM     32  C   LIG    1       -5.456   1.889  -9.070  0.00  0.00    -0.003 C 
ENDBRANCH  30  32
ENDBRANCH  29  30
ENDBRANCH  28  29
ENDBRANCH  27  28
ENDBRANCH  26  27
ENDBRANCH  25  26
ENDBRANCH  24  25
ENDBRANCH   1  24
BRANCH   3  33
ATOM     33  O   LIG    1       -1.559  -2.449   2.403  0.00  0.00    -0.278 OA
BRANCH  33  34
ATOM     34  P   LIG    1       -1.310  -2.368   4.013  0.00  0.00    +0.483 P 
ATOM     35  O   LIG    1        0.064  -1.982   4.432  0.00  0.00    -0.227 OA
BRANCH  34  36
ATOM     36  O   LIG    1       -1.750  -3.857   4.513  0.00  0.00    -0.249 OA
BRANCH  36  37
ATOM     37  C   LIG    1       -1.204  -5.020   3.903  0.00  0.00    +0.409 C 
BRANCH  37  38
ATOM     38  O   LIG    1        0.216  -4.962   3.757  0.00  0.00    -0.437 OA
BRANCH  38  39
ATOM     39  C   LIG    1        0.801  -4.870   2.539  0.00  0.00    +0.309 C 
ATOM     40  O   LIG    1        0.216  -4.850   1.453  0.00  0.00    -0.251 OA
BRANCH  39  41
ATOM     41  C   LIG    1        2.328  -4.801   2.641  0.00  0.00    +0.117 C 
ATOM     42  C   LIG    1        3.063  -5.442   1.450  0.00  0.00    +0.015 C 
ENDBRANCH  39  41
ENDBRANCH  38  39
ENDBRANCH  37  38
ENDBRANCH  36  37
ENDBRANCH  34  36
BRANCH  34  43
ATOM     43  O   LIG    1       -2.502  -1.391   4.550  0.00  0.00    -0.249 OA
BRANCH  43  44
ATOM     44  C   LIG    1       -3.850  -1.558   4.131  0.00  0.00    +0.409 C 
BRANCH  44  45
ATOM     45  O   LIG    1       -4.405  -2.803   4.545  0.00  0.00    -0.437 OA
BRANCH  45  46
ATOM     46  C   LIG    1       -4.799  -2.990   5.823  0.00  0.00    +0.309 C 
ATOM     47  O   LIG    1       -4.736  -2.162   6.732  0.00  0.00    -0.251 OA
BRANCH  46  48
ATOM     48  C   LIG    1       -5.358  -4.391   6.069  0.00  0.00    +0.117 C 
ATOM     49  C   LIG    1       -4.309  -5.339   6.670  0.00  0.00    +0.015 C 
ENDBRANCH  46  48
ENDBRANCH  45  46
ENDBRANCH  44  45
ENDBRANCH  43  44
ENDBRANCH  34  43
ENDBRANCH  33  34
ENDBRANCH   3  33
BRANCH   5  50
ATOM     50  O   LIG    1        1.865   0.074  -0.084  0.00  0.00    -0.277 OA
BRANCH  50  51
ATOM     51  P   LIG    1        3.074  -0.982  -0.391  0.00  0.00    +0.483 P 
ATOM     52  O   LIG    1        2.941  -2.318   0.253  0.00  0.00    -0.227 OA
BRANCH  51  53
ATOM     53  O   LIG    1        4.412  -0.147   0.028  0.00  0.00    -0.249 OA
BRANCH  53  54
ATOM     54  C   LIG    1        5.076  -0.421   1.250  0.00  0.00    +0.409 C 
BRANCH  54  55
ATOM     55  O   LIG    1        4.186  -0.372   2.361  0.00  0.00    -0.437 OA
BRANCH  55  56
ATOM     56  C   LIG    1        4.405  -1.113   3.464  0.00  0.00    +0.309 C 
ATOM     57  O   LIG    1        5.349  -1.886   3.643  0.00  0.00    -0.251 OA
BRANCH  56  58
ATOM     58  C   LIG    1        3.299  -0.912   4.503  0.00  0.00    +0.117 C 
ATOM     59  C   LIG    1        3.268  -1.970   5.619  0.00  0.00    +0.015 C 
ENDBRANCH  56  58
ENDBRANCH  55  56
ENDBRANCH  54  55
ENDBRANCH  53  54
ENDBRANCH  51  53
BRANCH  51  60
ATOM     60  O   LIG    1        3.141  -1.014  -2.018  0.00  0.00    -0.249 OA
BRANCH  60  61
ATOM     61  C   LIG    1        3.480   0.154  -2.741  0.00  0.00    +0.409 C 
BRANCH  61  62
ATOM     62  O   LIG    1        3.298  -0.048  -4.136  0.00  0.00    -0.437 OA
BRANCH  62  63
ATOM     63  C   LIG    1        2.117   0.224  -4.729  0.00  0.00    +0.309 C 
ATOM     64  O   LIG    1        1.138   0.733  -4.181  0.00  0.00    -0.251 OA
BRANCH  63  65
ATOM     65  C   LIG    1        2.109  -0.185  -6.207  0.00  0.00    +0.117 C 
ATOM     66  C   LIG    1        0.709  -0.214  -6.848  0.00  0.00    +0.015 C 
ENDBRANCH  63  65
ENDBRANCH  62  63
ENDBRANCH  61  62
ENDBRANCH  60  61
ENDBRANCH  51  60
ENDBRANCH  50  51
ENDBRANCH   5  50
BRANCH   4  67
ATOM     67  O   LIG    1        0.543  -0.086   2.448  0.00  0.00    -0.278 OA
BRANCH  67  68
ATOM     68  P   LIG    1       -0.120   1.369   2.813  0.00  0.00    +0.483 P 
ATOM     69  O   LIG    1       -1.092   1.912   1.823  0.00  0.00    -0.227 OA
BRANCH  68  70
ATOM     70  O   LIG    1        1.182   2.314   3.092  0.00  0.00    -0.249 OA
BRANCH  70  71
ATOM     71  C   LIG    1        2.139   2.550   2.073  0.00  0.00    +0.409 C 
BRANCH  71  72
ATOM     72  O   LIG    1        1.553   3.116   0.907  0.00  0.00    -0.437 OA
BRANCH  72  73
ATOM     73  C   LIG    1        2.268   3.243  -0.231  0.00  0.00    +0.309 C 
ATOM     74  O   LIG    1        3.441   2.902  -0.391  0.00  0.00    -0.251 OA
BRANCH  73  75
ATOM     75  C   LIG    1        1.463   3.867  -1.374  0.00  0.00    +0.117 C 
ATOM     76  C   LIG    1        0.194   3.074  -1.730  0.00  0.00    +0.015 C 
ENDBRANCH  73  75
ENDBRANCH  72  73
ENDBRANCH  71  72
ENDBRANCH  70  71
ENDBRANCH  68  70
BRANCH  68  77
ATOM     77  O   LIG    1       -0.750   1.137   4.297  0.00  0.00    -0.249 OA
BRANCH  77  78
ATOM     78  C   LIG    1        0.093   1.008   5.430  0.00  0.00    +0.409 C 
BRANCH  78  79
ATOM     79  O   LIG    1       -0.509   0.212   6.443  0.00  0.00    -0.437 OA
BRANCH  79  80
ATOM     80  C   LIG    1       -1.612   0.628   7.098  0.00  0.00    +0.309 C 
ATOM     81  O   LIG    1       -2.195   1.701   6.920  0.00  0.00    -0.251 OA
BRANCH  80  82
ATOM     82  C   LIG    1       -2.088  -0.413   8.118  0.00  0.00    +0.117 C 
ATOM     83  C   LIG    1       -3.337   0.002   8.917  0.00  0.00    +0.015 C 
ENDBRANCH  80  82
ENDBRANCH  79  80
ENDBRANCH  78  79
ENDBRANCH  77  78
ENDBRANCH  68  77
ENDBRANCH  67  68
ENDBRANCH   4  67
BRANCH   6  84
ATOM     84  O   LIG    1        0.429  -2.331  -1.319  0.00  0.00    -0.456 OA
BRANCH  84  85
ATOM     85  C   LIG    1        0.566  -2.970  -2.501  0.00  0.00    +0.307 C 
ATOM     86  O   LIG    1        0.282  -2.512  -3.611  0.00  0.00    -0.251 OA
BRANCH  85  87
ATOM     87  C   LIG    1        1.153  -4.372  -2.309  0.00  0.00    +0.120 C 
BRANCH  87  88
ATOM     88  C   LIG    1        1.353  -5.173  -3.611  0.00  0.00    +0.008 C 
ATOM     89  C   LIG    1        1.943  -6.565  -3.353  0.00  0.00    +0.004 C 
ENDBRANCH  87  88
ENDBRANCH  85  87
ENDBRANCH  84  85
ENDBRANCH   6  84
TORSDOF 60
