REMARK  Name = DB17064
REMARK                            x       y       z     vdW  Elec       q    Type
REMARK                         _______ _______ _______ _____ _____    ______ ____
ROOT
ATOM      1  C   LIG    1        1.670   0.265  -0.197  0.00  0.00    -0.070 C 
ENDROOT
BRANCH   1   2
ATOM      2  N   LIG    1        0.123   0.152  -0.290  0.00  0.00    +0.384 N 
ATOM      3  H   LIG    1       -0.166  -0.287   0.573  0.00  0.00    -0.081 HD
BRANCH   2   5
ATOM      4  C   LIG    1       -0.104  -2.268  -1.007  0.00  0.00    -0.014 C 
ATOM      5  C   LIG    1       -0.388  -0.806  -1.405  0.00  0.00    -0.074 C 
ATOM      6  C   LIG    1        0.167  -0.425  -2.793  0.00  0.00    -0.014 C 
ENDBRANCH   2   5
BRANCH   2   7
ATOM      7  C   LIG    1       -0.569   1.540  -0.292  0.00  0.00    -0.043 C 
BRANCH   7   8
ATOM      8  C   LIG    1       -2.067   1.497  -0.034  0.00  0.00    -0.064 A 
ATOM      9  C   LIG    1       -2.541   1.246   1.257  0.00  0.00    +0.002 A 
ATOM     10  C   LIG    1       -3.912   1.216   1.499  0.00  0.00    +0.000 A 
ATOM     11  C   LIG    1       -4.803   1.441   0.452  0.00  0.00    +0.000 A 
ATOM     12  C   LIG    1       -4.336   1.700  -0.835  0.00  0.00    +0.000 A 
ATOM     13  C   LIG    1       -2.966   1.730  -1.079  0.00  0.00    +0.002 A 
ENDBRANCH   7   8
ENDBRANCH   2   7
ENDBRANCH   1   2
BRANCH   1  14
ATOM     14  C   LIG    1        2.162   0.779   1.183  0.00  0.00    +0.061 C 
BRANCH  14  15
ATOM     15  C   LIG    1        1.679   0.014   2.436  0.00  0.00    +0.161 C 
ATOM     16  O   LIG    1        1.018  -1.019   2.300  0.00  0.00    -0.292 OA
BRANCH  15  17
ATOM     17  C   LIG    1        2.009   0.596   3.777  0.00  0.00    +0.018 A 
ATOM     18  C   LIG    1        2.868   1.694   3.914  0.00  0.00    +0.012 A 
ATOM     19  C   LIG    1        3.179   2.219   5.165  0.00  0.00    +0.009 A 
ATOM     20  C   LIG    1        2.631   1.650   6.338  0.00  0.00    -0.018 A 
ATOM     21  C   LIG    1        2.928   2.160   7.627  0.00  0.00    +0.008 A 
ATOM     22  C   LIG    1        2.370   1.574   8.760  0.00  0.00    +0.001 A 
ATOM     23  C   LIG    1        1.515   0.483   8.644  0.00  0.00    +0.001 A 
ATOM     24  C   LIG    1        1.204  -0.043   7.393  0.00  0.00    +0.008 A 
ATOM     25  C   LIG    1        1.754   0.530   6.218  0.00  0.00    -0.017 A 
ATOM     26  C   LIG    1        1.460   0.019   4.930  0.00  0.00    +0.020 A 
ENDBRANCH  15  17
ENDBRANCH  14  15
ENDBRANCH   1  14
TORSDOF 7
