REMARK  Name = DB17226
REMARK                            x       y       z     vdW  Elec       q    Type
REMARK                         _______ _______ _______ _____ _____    ______ ____
ROOT
ATOM      1  C   LIG    1        1.573  -0.081  -0.003  0.00  0.00    +0.132 A 
ATOM      2  C   LIG    1        2.403   1.074  -0.277  0.00  0.00    +0.062 A 
ATOM      3  C   LIG    1        3.731   0.891  -0.280  0.00  0.00    +0.096 A 
ATOM      4  N   LIG    1        4.312  -0.331  -0.037  0.00  0.00    -0.270 N 
ATOM      5  C   LIG    1        3.520  -1.450   0.177  0.00  0.00    +0.352 A 
ATOM      6  O   LIG    1        4.056  -2.546   0.353  0.00  0.00    -0.244 OA
ATOM      7  N   LIG    1        2.124  -1.235   0.179  0.00  0.00    -0.178 NA
ENDROOT
BRANCH   4   8
ATOM      8  C1* LIG    1        5.770  -0.483  -0.058  0.00  0.00    +0.255 C 
ATOM      9  C2* LIG    1        6.411  -1.225  -1.236  0.00  0.00    +0.195 C 
ATOM     10  C3* LIG    1        7.867  -0.805  -1.029  0.00  0.00    +0.178 C 
ATOM     11  C4* LIG    1        7.785   0.632  -0.481  0.00  0.00    +0.177 C 
ATOM     12  O4* LIG    1        6.453   0.736   0.021  0.00  0.00    -0.346 OA
BRANCH   9  13
ATOM     13  O2* LIG    1        5.863  -0.792  -2.471  0.00  0.00    -0.385 OA
ATOM     14  H2* LIG    1        5.000  -1.199  -2.582  0.00  0.00    +0.210 HD
ENDBRANCH   9  13
BRANCH  10  15
ATOM     15  O3* LIG    1        8.550  -1.677  -0.144  0.00  0.00    -0.386 OA
ATOM     16  H3* LIG    1        8.128  -1.632   0.717  0.00  0.00    +0.210 HD
ENDBRANCH  10  15
BRANCH  11  17
ATOM     17  C5* LIG    1        7.987   1.725  -1.551  0.00  0.00    +0.190 C 
BRANCH  17  18
ATOM     18  O5* LIG    1        7.930   3.014  -0.974  0.00  0.00    -0.392 OA
ATOM     19  H5* LIG    1        8.036   3.666  -1.671  0.00  0.00    +0.210 HD
ENDBRANCH  17  18
ENDBRANCH  11  17
ENDBRANCH   4   8
BRANCH   1  21
ATOM     20  C   LIG    1       -0.586   1.044   0.277  0.00  0.00    +0.217 C 
ATOM     21  N   LIG    1        0.214  -0.020   0.038  0.00  0.00    -0.270 N 
ATOM     22  H   LIG    1       -0.265  -0.903  -0.062  0.00  0.00    +0.156 HD
ATOM     23  O   LIG    1       -0.187   2.175   0.557  0.00  0.00    -0.275 OA
BRANCH  20  24
ATOM     24  C   LIG    1       -2.096   0.750   0.204  0.00  0.00    +0.091 C 
BRANCH  24  25
ATOM     25  CA  LIG    1       -3.032   1.883   0.721  0.00  0.00    +0.044 C 
BRANCH  25  26
ATOM     26  N   LIG    1       -2.809   2.102   2.230  0.00  0.00    +0.387 N 
ATOM     27  H1  LIG    1       -3.025   1.257   2.740  0.00  0.00    -0.089 HD
ATOM     28  H2  LIG    1       -1.844   2.346   2.401  0.00  0.00    -0.089 HD
ATOM     29  H3  LIG    1       -3.395   2.854   2.563  0.00  0.00    -0.089 HD
ENDBRANCH  25  26
BRANCH  25  30
ATOM     30  C   LIG    1       -4.527   1.541   0.478  0.00  0.00    +0.291 C 
ATOM     31  OXT LIG    1       -4.933   1.679  -0.698  0.00  0.00    -0.253 OA
BRANCH  30  32
ATOM     32  O   LIG    1       -5.246   1.130   1.419  0.00  0.00    -0.482 OA
ATOM     33  H   LIG    1       -6.148   0.926   1.265  0.00  0.00    +0.295 HD
ENDBRANCH  30  32
ENDBRANCH  25  30
ENDBRANCH  24  25
ENDBRANCH  20  24
ENDBRANCH   1  21
TORSDOF 11
