REMARK  Name = DB17031
REMARK                            x       y       z     vdW  Elec       q    Type
REMARK                         _______ _______ _______ _____ _____    ______ ____
ROOT
ATOM      1  N   LIG    1        1.379  -0.021   0.008  0.00  0.00    -0.282 NA
ATOM      2  C   LIG    1        2.073   0.012   1.222  0.00  0.00    +0.054 C 
ATOM      3  C   LIG    1        1.412   0.062   2.492  0.00  0.00    +0.040 C 
ATOM      4  C   LIG    1        2.139   0.083   3.676  0.00  0.00    +0.044 C 
ATOM      5  C   LIG    1        3.525   0.056   3.646  0.00  0.00    +0.020 C 
ATOM      6  C   LIG    1        4.205   0.015   2.436  0.00  0.00    +0.008 C 
ATOM      7  C   LIG    1        3.506  -0.004   1.188  0.00  0.00    +0.010 C 
ATOM      8  C   LIG    1        4.197  -0.034  -0.057  0.00  0.00    -0.002 C 
ATOM      9  C   LIG    1        5.625  -0.054  -0.145  0.00  0.00    +0.006 C 
ATOM     10  C   LIG    1        6.271  -0.070  -1.375  0.00  0.00    +0.020 C 
ATOM     11  C   LIG    1        5.540  -0.066  -2.554  0.00  0.00    +0.043 C 
ATOM     12  C   LIG    1        4.151  -0.049  -2.513  0.00  0.00    +0.026 C 
ATOM     13  C   LIG    1        3.447  -0.035  -1.270  0.00  0.00    +0.016 C 
ATOM     14  C   LIG    1        2.024  -0.021  -1.203  0.00  0.00    +0.078 C 
ENDROOT
BRANCH  14  15
ATOM     15  C   LIG    1        1.223   0.005  -2.466  0.00  0.00    -0.024 A 
ATOM     16  C   LIG    1        0.899  -1.189  -3.118  0.00  0.00    +0.005 A 
ATOM     17  C   LIG    1        0.160  -1.166  -4.298  0.00  0.00    +0.000 A 
ATOM     18  C   LIG    1       -0.253   0.054  -4.829  0.00  0.00    +0.000 A 
ATOM     19  C   LIG    1        0.069   1.250  -4.192  0.00  0.00    +0.000 A 
ATOM     20  C   LIG    1        0.809   1.224  -3.012  0.00  0.00    +0.005 A 
ENDBRANCH  14  15
BRANCH   4  21
ATOM     21  N   LIG    1        1.473   0.132   4.900  0.00  0.00    -0.323 NA
ATOM     22  H   LIG    1        0.464   0.153   4.918  0.00  0.00    +0.119 HD
ATOM     23  H   LIG    1        2.007   0.152   5.757  0.00  0.00    +0.119 HD
ENDBRANCH   4  21
BRANCH  11  24
ATOM     24  N   LIG    1        6.199  -0.079  -3.783  0.00  0.00    -0.323 NA
ATOM     25  H   LIG    1        7.209  -0.090  -3.807  0.00  0.00    +0.119 HD
ATOM     26  H   LIG    1        5.661  -0.074  -4.637  0.00  0.00    +0.119 HD
ENDBRANCH  11  24
BRANCH   1  28
ATOM     27  C   LIG    1       -0.723   1.363   0.245  0.00  0.00    +0.020 C 
ATOM     28  C   LIG    1       -0.125  -0.043   0.045  0.00  0.00    +0.082 C 
ENDBRANCH   1  28
TORSDOF 4
