REMARK  Name = DB17705
REMARK                            x       y       z     vdW  Elec       q    Type
REMARK                         _______ _______ _______ _____ _____    ______ ____
ROOT
ATOM      1  C   LIG    1        1.856   0.856   1.242  0.00  0.00    +0.213 C 
ATOM      2  O   LIG    1        1.672   0.444   2.387  0.00  0.00    -0.276 OA
ATOM      3  N   LIG    1        2.473   2.017   1.005  0.00  0.00    -0.329 N 
ATOM      4  H   LIG    1        2.802   2.579   1.776  0.00  0.00    +0.145 HD
ATOM      5  H   LIG    1        2.617   2.337   0.059  0.00  0.00    +0.145 HD
ENDROOT
BRANCH   1   7
ATOM      6  C   LIG    1       -0.156  -0.120   0.030  0.00  0.00    +0.017 C 
ATOM      7  C   LIG    1        1.377   0.043   0.024  0.00  0.00    +0.069 C 
ATOM      8  C   LIG    1        2.086  -1.326  -0.044  0.00  0.00    +0.017 C 
ENDBRANCH   1   7
TORSDOF 1
