REMARK  Name = DB17384
REMARK                            x       y       z     vdW  Elec       q    Type
REMARK                         _______ _______ _______ _____ _____    ______ ____
ROOT
ATOM      1  C   LIG    1        0.194  -0.054  -0.143  0.00  0.00    +0.070 C 
ATOM      2  C   LIG    1        1.671   0.109  -0.435  0.00  0.00    +0.087 A 
ATOM      3  N   LIG    1        2.383  -0.950  -0.764  0.00  0.00    -0.175 NA
ATOM      4  N   LIG    1        3.621  -0.489  -0.969  0.00  0.00    -0.260 N 
ATOM      5  H   LIG    1        4.380  -1.096  -1.240  0.00  0.00    +0.191 HD
ATOM      6  C   LIG    1        3.732   0.858  -0.771  0.00  0.00    +0.153 A 
ATOM      7  N   LIG    1        4.902   1.528  -0.927  0.00  0.00    -0.338 N 
ATOM      8  H   LIG    1        5.700   0.974  -1.199  0.00  0.00    +0.167 HD
ATOM      9  C   LIG    1        5.188   2.803  -0.418  0.00  0.00    +0.055 A 
ATOM     10  C   LIG    1        6.540   3.172  -0.365  0.00  0.00    +0.070 A 
ATOM     11  C   LIG    1        6.942   4.413   0.140  0.00  0.00    +0.123 A 
ATOM     12  N   LIG    1        6.016   5.271   0.630  0.00  0.00    -0.240 NA
ATOM     13  C   LIG    1        4.709   4.934   0.571  0.00  0.00    +0.125 A 
ATOM     14  C   LIG    1        4.199   3.728   0.046  0.00  0.00    +0.043 A 
ATOM     15  C   LIG    1        2.692   3.555   0.018  0.00  0.00    +0.084 A 
ATOM     16  N   LIG    1        1.976   2.503  -0.147  0.00  0.00    -0.241 NA
ATOM     17  C   LIG    1        2.470   1.271  -0.417  0.00  0.00    +0.129 A 
ENDROOT
BRANCH  15  18
ATOM     18  C   LIG    1        1.881   4.771   0.218  0.00  0.00    +0.019 A 
ATOM     19  C   LIG    1        1.354   5.129   1.475  0.00  0.00    +0.050 A 
ATOM     20 CL   LIG    1        1.620   4.172   2.896  0.00  0.00    -0.083 Cl
ATOM     21  C   LIG    1        0.594   6.295   1.600  0.00  0.00    +0.020 A 
ATOM     22  C   LIG    1        0.356   7.106   0.492  0.00  0.00    +0.001 A 
ATOM     23  C   LIG    1        0.877   6.757  -0.752  0.00  0.00    +0.001 A 
ATOM     24  C   LIG    1        1.636   5.596  -0.890  0.00  0.00    +0.011 A 
ENDBRANCH  15  18
BRANCH  11  25
ATOM     25  N   LIG    1        8.288   4.788   0.259  0.00  0.00    -0.311 N 
ATOM     26  C   LIG    1        9.359   4.017  -0.406  0.00  0.00    +0.134 C 
ATOM     27  C   LIG    1       10.788   4.360   0.065  0.00  0.00    +0.178 C 
ATOM     28  O   LIG    1       11.012   5.757  -0.020  0.00  0.00    -0.377 OA
ATOM     29  C   LIG    1       10.114   6.471   0.812  0.00  0.00    +0.178 C 
ATOM     30  C   LIG    1        8.662   6.217   0.357  0.00  0.00    +0.134 C 
ENDBRANCH  11  25
TORSDOF 2
