REMARK  Name = DB17614
REMARK                            x       y       z     vdW  Elec       q    Type
REMARK                         _______ _______ _______ _____ _____    ______ ____
ROOT
ATOM      1  C   LIG    1        1.490   0.128  -0.167  0.00  0.00    +0.050 C 
ENDROOT
BRANCH   1   3
ATOM      2  C   LIG    1       -0.794   1.364   0.138  0.00  0.00    -0.092 C 
ATOM      3  N   LIG    1       -0.085  -0.009  -0.047  0.00  0.00    +0.384 N 
ATOM      4  C   LIG    1       -0.762  -0.760  -1.227  0.00  0.00    -0.092 C 
ATOM      5  C   LIG    1       -0.421  -0.809   1.244  0.00  0.00    -0.092 C 
ENDBRANCH   1   3
BRANCH   1   6
ATOM      6  C   LIG    1        1.941   1.242  -1.168  0.00  0.00    +0.292 C 
ATOM      7  O   LIG    1        2.974   1.881  -0.866  0.00  0.00    -0.253 OA
BRANCH   6   8
ATOM      8  O   LIG    1        1.307   1.429  -2.231  0.00  0.00    -0.482 OA
ATOM      9  H   LIG    1        1.580   2.098  -2.828  0.00  0.00    +0.295 HD
ENDBRANCH   6   8
ENDBRANCH   1   6
BRANCH   1  10
ATOM     10  C   LIG    1        2.176  -1.231  -0.535  0.00  0.00    +0.051 C 
BRANCH  10  11
ATOM     11  C   LIG    1        3.665  -1.340  -0.228  0.00  0.00    +0.033 A 
ATOM     12  N   LIG    1        4.326  -2.419  -0.684  0.00  0.00    -0.338 N 
ATOM     13  H   LIG    1        3.921  -3.172  -1.223  0.00  0.00    +0.168 HD
ATOM     14  C   LIG    1        5.642  -2.412  -0.350  0.00  0.00    +0.155 A 
ATOM     15  S   LIG    1        6.817  -3.528  -0.695  0.00  0.00    -0.013 S 
ATOM     16  N   LIG    1        5.740  -1.246   0.339  0.00  0.00    -0.340 N 
ATOM     17  H   LIG    1        6.615  -0.932   0.732  0.00  0.00    +0.167 HD
ATOM     18  C   LIG    1        4.566  -0.603   0.419  0.00  0.00    +0.106 A 
ENDBRANCH  10  11
ENDBRANCH   1  10
TORSDOF 5
