REMARK  Name = DB17537
REMARK                            x       y       z     vdW  Elec       q    Type
REMARK                         _______ _______ _______ _____ _____    ______ ____
ROOT
ATOM      1  CA  LIG    1       -0.081   0.064  -0.073  0.00  0.00    +0.036 C 
ENDROOT
BRANCH   1   2
ATOM      2  N   LIG    1       -0.600  -0.570  -1.376  0.00  0.00    +0.387 N 
ATOM      3  H1  LIG    1       -0.280  -0.038  -2.173  0.00  0.00    -0.089 HD
ATOM      4  H2  LIG    1       -0.255  -1.515  -1.459  0.00  0.00    -0.089 HD
ATOM      5  H3  LIG    1       -1.610  -0.594  -1.373  0.00  0.00    -0.089 HD
ENDBRANCH   1   2
BRANCH   1   6
ATOM      6  C   LIG    1       -0.650   1.506   0.035  0.00  0.00    +0.290 C 
ATOM      7  OXT LIG    1       -0.686   1.995   1.185  0.00  0.00    -0.253 OA
BRANCH   6   8
ATOM      8  O   LIG    1       -1.023   2.119  -0.994  0.00  0.00    -0.482 OA
ATOM      9  H   LIG    1       -1.366   2.988  -0.923  0.00  0.00    +0.295 HD
ENDBRANCH   6   8
ENDBRANCH   1   6
BRANCH   1  10
ATOM     10  C   LIG    1        1.469   0.035  -0.100  0.00  0.00    +0.003 C 
BRANCH  10  11
ATOM     11  C   LIG    1        2.125   0.279   1.280  0.00  0.00    +0.081 C 
BRANCH  11  12
ATOM     12  C   LIG    1        3.659   0.179   1.294  0.00  0.00    +0.188 C 
ATOM     13  O   LIG    1        4.292  -0.098   0.272  0.00  0.00    -0.290 OA
BRANCH  12  14
ATOM     14  C   LIG    1        4.273   0.433   2.583  0.00  0.00    +0.249 C 
ATOM     15  N   LIG    1        5.579   0.365   2.703  0.00  0.00    -0.312 NA
ATOM     16  N   LIG    1        6.709   0.308   2.835  0.00  0.00    -0.151 NA
ATOM     17  H   LIG    1        7.096   0.228   3.736  0.00  0.00    +0.226 HD
ENDBRANCH  12  14
ENDBRANCH  11  12
ENDBRANCH  10  11
ENDBRANCH   1  10
TORSDOF 7
