REMARK  Name = DB17071
REMARK                            x       y       z     vdW  Elec       q    Type
REMARK                         _______ _______ _______ _____ _____    ______ ____
ROOT
ATOM      1  C   LIG    1       -0.193   4.095  -0.873  0.00  0.00    +0.175 A 
ATOM      2  C   LIG    1       -0.701   3.451   0.267  0.00  0.00    +0.163 A 
ATOM      3  C   LIG    1       -0.558   2.057   0.376  0.00  0.00    +0.054 A 
ATOM      4  C   LIG    1        0.095   1.321  -0.617  0.00  0.00    -0.027 A 
ATOM      5  C   LIG    1        0.555   1.972  -1.764  0.00  0.00    +0.009 A 
ATOM      6  C   LIG    1        0.409   3.351  -1.892  0.00  0.00    +0.050 A 
ENDROOT
BRANCH   2   7
ATOM      7  O   LIG    1       -1.325   4.238   1.220  0.00  0.00    -0.491 OA
ATOM      8  C   LIG    1       -1.920   3.619   2.356  0.00  0.00    +0.277 C 
ENDBRANCH   2   7
BRANCH   1   9
ATOM      9  O   LIG    1       -0.299   5.461  -1.019  0.00  0.00    -0.408 OA
BRANCH   9  12
ATOM     10  C   LIG    1       -1.351   7.927  -0.501  0.00  0.00    +0.062 C 
ATOM     11  N   LIG    1        0.065   7.581  -0.189  0.00  0.00    -0.266 N 
ATOM     12  C   LIG    1        0.577   6.279  -0.357  0.00  0.00    +0.408 C 
ATOM     13  O   LIG    1        1.688   5.902   0.029  0.00  0.00    -0.226 OA
ATOM     14  C   LIG    1        0.940   8.602   0.424  0.00  0.00    +0.111 C 
ATOM     15  C   LIG    1        0.290   9.037   1.752  0.00  0.00    +0.019 C 
ATOM     16  C   LIG    1       -1.160   9.502   1.560  0.00  0.00    +0.003 C 
ATOM     17  C   LIG    1       -1.987   8.433   0.823  0.00  0.00    +0.021 C 
BRANCH  10  18
ATOM     18  C   LIG    1       -1.522   8.948  -1.647  0.00  0.00    -0.060 C 
BRANCH  18  20
ATOM     19  C   LIG    1       -1.314   9.232  -4.191  0.00  0.00    -0.100 C 
ATOM     20  N   LIG    1       -1.159   8.291  -2.989  0.00  0.00    +0.378 N 
ATOM     21  H   LIG    1       -0.202   7.970  -2.946  0.00  0.00    -0.086 HD
ATOM     22  H   LIG    1       -1.750   7.483  -3.127  0.00  0.00    -0.086 HD
ENDBRANCH  18  20
ENDBRANCH  10  18
ENDBRANCH   9  12
ENDBRANCH   1   9
BRANCH   4  23
ATOM     23  C   LIG    1        0.266  -0.187  -0.471  0.00  0.00    +0.139 C 
BRANCH  23  24
ATOM     24  N   LIG    1        1.543  -0.551   0.143  0.00  0.00    -0.311 N 
ATOM     25  H   LIG    1        2.286  -0.807  -0.491  0.00  0.00    +0.149 HD
ATOM     26  C   LIG    1        1.833  -0.426   1.451  0.00  0.00    +0.213 C 
ATOM     27  O   LIG    1        1.011  -0.085   2.303  0.00  0.00    -0.276 OA
BRANCH  26  28
ATOM     28  C   LIG    1        3.285  -0.704   1.864  0.00  0.00    +0.096 C 
BRANCH  28  29
ATOM     29  C   LIG    1        3.991   0.534   2.466  0.00  0.00    +0.009 C 
BRANCH  29  30
ATOM     30  C   LIG    1        4.194   1.695   1.466  0.00  0.00    +0.004 C 
BRANCH  30  31
ATOM     31  C   LIG    1        4.862   2.943   2.072  0.00  0.00    +0.027 C 
BRANCH  31  32
ATOM     32  C   LIG    1        4.009   3.666   3.100  0.00  0.00    -0.031 C 
ATOM     33  C   LIG    1        3.356   4.821   2.874  0.00  0.00    -0.028 C 
BRANCH  33  34
ATOM     34  C   LIG    1        2.501   5.555   3.893  0.00  0.00    +0.005 C 
ATOM     35  C   LIG    1        2.890   7.039   4.004  0.00  0.00    +0.011 C 
ATOM     36  C   LIG    1        1.001   5.388   3.604  0.00  0.00    +0.011 C 
ENDBRANCH  33  34
ENDBRANCH  31  32
ENDBRANCH  30  31
ENDBRANCH  29  30
ENDBRANCH  28  29
ENDBRANCH  26  28
ENDBRANCH  23  24
ENDBRANCH   4  23
TORSDOF 13
