REMARK  Name = DB17040
REMARK                            x       y       z     vdW  Elec       q    Type
REMARK                         _______ _______ _______ _____ _____    ______ ____
ROOT
ATOM      1  C   LIG    1        1.526  -0.101   0.018  0.00  0.00    +0.139 A 
ATOM      2  N   LIG    1        2.325   0.939   0.072  0.00  0.00    -0.227 NA
ATOM      3  C   LIG    1        3.571   0.478   0.018  0.00  0.00    +0.097 A 
ATOM      4  C   LIG    1        3.586  -0.929   0.003  0.00  0.00    +0.074 A 
ATOM      5  N   LIG    1        2.255  -1.257  -0.041  0.00  0.00    -0.337 N 
ATOM      6  H   LIG    1        1.878  -2.193  -0.073  0.00  0.00    +0.167 HD
ENDROOT
BRANCH   4   7
ATOM      7  C   LIG    1        4.665  -1.964   0.015  0.00  0.00    +0.001 A 
ATOM      8  C   LIG    1        5.849  -1.737   0.725  0.00  0.00    +0.013 A 
ATOM      9  C   LIG    1        6.852  -2.703   0.746  0.00  0.00    +0.039 A 
ATOM     10  C   LIG    1        6.670  -3.902   0.060  0.00  0.00    +0.123 A 
ATOM     11  F   LIG    1        7.643  -4.840   0.080  0.00  0.00    -0.205 F 
ATOM     12  C   LIG    1        5.491  -4.143  -0.641  0.00  0.00    +0.039 A 
ATOM     13  C   LIG    1        4.489  -3.177  -0.662  0.00  0.00    +0.013 A 
ENDBRANCH   4   7
BRANCH   1  17
ATOM     14  C   LIG    1       -2.785   0.074   0.008  0.00  0.00    +0.122 A 
ATOM     15  C   LIG    1       -2.121  -1.160   0.006  0.00  0.00    +0.033 A 
ATOM     16  C   LIG    1       -0.730  -1.216   0.012  0.00  0.00    +0.014 A 
ATOM     17  C   LIG    1        0.028  -0.041   0.018  0.00  0.00    +0.017 A 
ATOM     18  C   LIG    1       -0.632   1.193   0.023  0.00  0.00    +0.014 A 
ATOM     19  C   LIG    1       -2.023   1.250   0.018  0.00  0.00    +0.033 A 
BRANCH  14  20
ATOM     20  N   LIG    1       -4.268   0.134  -0.001  0.00  0.00    +0.006 N 
ATOM     21  O   LIG    1       -4.899  -0.919  -0.009  0.00  0.00    -0.130 OA
BRANCH  20  22
ATOM     22  O   LIG    1       -4.812   1.235  -0.001  0.00  0.00    -0.396 OA
ATOM     23  H   LIG    1       -5.747   1.295  -0.007  0.00  0.00    +0.329 HD
ENDBRANCH  20  22
ENDBRANCH  14  20
ENDBRANCH   1  17
BRANCH   3  24
ATOM     24  C   LIG    1        4.718   1.443  -0.016  0.00  0.00    +0.005 A 
ATOM     25  C   LIG    1        5.895   1.140  -0.716  0.00  0.00    +0.030 A 
ATOM     26  C   LIG    1        6.937   2.068  -0.731  0.00  0.00    +0.111 A 
ATOM     27  N   LIG    1        6.866   3.267  -0.100  0.00  0.00    -0.263 NA
ATOM     28  C   LIG    1        5.722   3.561   0.566  0.00  0.00    +0.111 A 
ATOM     29  C   LIG    1        4.635   2.687   0.628  0.00  0.00    +0.030 A 
ENDBRANCH   3  24
TORSDOF 5
