REMARK  Name = DB17636
REMARK                            x       y       z     vdW  Elec       q    Type
REMARK                         _______ _______ _______ _____ _____    ______ ____
ROOT
ATOM      1  S   LIG    1       -0.555  -0.675   0.969  0.00  0.00    -0.094 S 
ENDROOT
BRANCH   1   2
ATOM      2  C   LIG    1       -0.059   0.961   0.334  0.00  0.00    +0.074 C 
BRANCH   2   3
ATOM      3  C   LIG    1       -1.161   2.029   0.076  0.00  0.00    +0.024 C 
BRANCH   3  10
ATOM      4  C   LIG    1       -2.715   5.478  -4.971  0.00  0.00    -0.096 C 
ATOM      5  N   LIG    1       -3.215   4.709  -3.732  0.00  0.00    +0.380 N 
ATOM      6  H   LIG    1       -4.136   5.043  -3.483  0.00  0.00    -0.082 HD
ATOM      7  C   LIG    1       -2.270   4.941  -2.533  0.00  0.00    -0.060 C 
ATOM      8  C   LIG    1       -2.793   4.165  -1.302  0.00  0.00    +0.089 C 
ATOM      9  N   LIG    1       -2.886   2.733  -1.660  0.00  0.00    -0.306 N 
ATOM     10  C   LIG    1       -2.129   1.737  -1.110  0.00  0.00    +0.202 C 
ATOM     11  O   LIG    1       -2.160   0.581  -1.537  0.00  0.00    -0.277 OA
ATOM     12  C   LIG    1       -3.809   2.444  -2.781  0.00  0.00    +0.089 C 
ATOM     13  C   LIG    1       -3.309   3.199  -4.035  0.00  0.00    -0.060 C 
ENDBRANCH   3  10
BRANCH   3  14
ATOM     14  N   LIG    1       -2.031   2.266   1.282  0.00  0.00    +0.386 N 
ATOM     15  H   LIG    1       -2.528   1.414   1.501  0.00  0.00    -0.089 HD
ATOM     16  H   LIG    1       -1.444   2.522   2.063  0.00  0.00    -0.089 HD
ATOM     17  H   LIG    1       -2.683   3.013   1.089  0.00  0.00    -0.089 HD
ENDBRANCH   3  14
ENDBRANCH   2   3
ENDBRANCH   1   2
BRANCH   1  18
ATOM     18  S   LIG    1        1.202  -1.687   1.158  0.00  0.00    -0.091 S 
BRANCH  18  19
ATOM     19  C   LIG    1        1.490  -2.377  -0.501  0.00  0.00    +0.109 C 
BRANCH  19  20
ATOM     20  C   LIG    1        2.736  -3.273  -0.694  0.00  0.00    +0.149 C 
BRANCH  20  21
ATOM     21  C   LIG    1        4.066  -2.476  -0.545  0.00  0.00    +0.233 C 
ATOM     22  N   LIG    1        4.619  -1.876  -1.638  0.00  0.00    -0.304 N 
ATOM     23  C   LIG    1        5.938  -1.213  -1.552  0.00  0.00    +0.089 C 
ATOM     24  C   LIG    1        6.916  -1.964  -2.488  0.00  0.00    -0.060 C 
ATOM     25  N   LIG    1        6.353  -2.003  -3.926  0.00  0.00    +0.380 N 
ATOM     26  H   LIG    1        6.258  -1.053  -4.257  0.00  0.00    -0.082 HD
ATOM     27  C   LIG    1        7.309  -2.772  -4.859  0.00  0.00    -0.096 C 
ATOM     28  C   LIG    1        4.955  -2.658  -3.926  0.00  0.00    -0.060 C 
ATOM     29  C   LIG    1        4.022  -1.860  -2.988  0.00  0.00    +0.089 C 
ATOM     30  O   LIG    1        4.580  -2.404   0.576  0.00  0.00    -0.274 OA
ENDBRANCH  20  21
BRANCH  20  31
ATOM     31  N   LIG    1        2.756  -4.427   0.226  0.00  0.00    -0.319 NA
ATOM     32  H   LIG    1        2.019  -5.082   0.004  0.00  0.00    +0.119 HD
ATOM     33  H   LIG    1        2.591  -4.130   1.178  0.00  0.00    +0.119 HD
ENDBRANCH  20  31
ENDBRANCH  19  20
ENDBRANCH  18  19
ENDBRANCH   1  18
TORSDOF 9
