REMARK  Name = DB17056
REMARK                            x       y       z     vdW  Elec       q    Type
REMARK                         _______ _______ _______ _____ _____    ______ ____
ROOT
ATOM      1  N   LIG    1        3.481  -1.302  -0.346  0.00  0.00    +0.380 N 
ATOM      2  H   LIG    1        3.808  -0.708   0.404  0.00  0.00    -0.082 HD
ATOM      3  C   LIG    1        4.016  -0.731  -1.681  0.00  0.00    -0.076 C 
ATOM      4  C   LIG    1        5.560  -0.738  -1.648  0.00  0.00    +0.017 C 
ATOM      5  C   LIG    1        6.241  -2.119  -1.359  0.00  0.00    +0.109 C 
ATOM      6  C   LIG    1        6.028  -3.118  -2.532  0.00  0.00    +0.238 C 
ATOM      7  O   LIG    1        5.116  -3.134  -3.357  0.00  0.00    -0.273 OA
ATOM      8  N   LIG    1        7.119  -3.889  -2.530  0.00  0.00    -0.298 N 
ATOM      9  H   LIG    1        7.301  -4.626  -3.196  0.00  0.00    +0.150 HD
ATOM     10  C   LIG    1        8.086  -3.458  -1.549  0.00  0.00    +0.214 C 
ATOM     11  N   LIG    1        7.709  -2.093  -1.194  0.00  0.00    -0.300 N 
ATOM     12  C   LIG    1        5.574  -2.660  -0.053  0.00  0.00    +0.017 C 
ATOM     13  C   LIG    1        4.033  -2.723  -0.081  0.00  0.00    -0.076 C 
ENDROOT
BRANCH  11  14
ATOM     14  C   LIG    1        8.497  -0.999  -1.593  0.00  0.00    +0.032 A 
ATOM     15  C   LIG    1        8.612   0.104  -0.739  0.00  0.00    +0.023 A 
ATOM     16  C   LIG    1        9.295   1.247  -1.146  0.00  0.00    +0.002 A 
ATOM     17  C   LIG    1        9.838   1.304  -2.427  0.00  0.00    +0.000 A 
ATOM     18  C   LIG    1        9.691   0.235  -3.306  0.00  0.00    +0.002 A 
ATOM     19  C   LIG    1        9.008  -0.906  -2.895  0.00  0.00    +0.023 A 
ENDBRANCH  11  14
BRANCH   1  20
ATOM     20  C   LIG    1        1.934  -1.335  -0.312  0.00  0.00    -0.078 C 
BRANCH  20  21
ATOM     21  C   LIG    1        1.341   0.084  -0.257  0.00  0.00    -0.011 C 
BRANCH  21  22
ATOM     22  C   LIG    1       -0.181   0.059  -0.023  0.00  0.00    +0.078 C 
BRANCH  22  23
ATOM     23  C   LIG    1       -0.795   1.466   0.058  0.00  0.00    +0.163 C 
ATOM     24  O   LIG    1       -0.919   1.974   1.173  0.00  0.00    -0.292 OA
BRANCH  23  29
ATOM     25  F   LIG    1       -2.544   4.055  -4.649  0.00  0.00    -0.205 F 
ATOM     26  C   LIG    1       -2.125   3.428  -3.527  0.00  0.00    +0.123 A 
ATOM     27  C   LIG    1       -2.373   3.998  -2.281  0.00  0.00    +0.039 A 
ATOM     28  C   LIG    1       -1.940   3.352  -1.127  0.00  0.00    +0.014 A 
ATOM     29  C   LIG    1       -1.256   2.129  -1.207  0.00  0.00    +0.018 A 
ATOM     30  C   LIG    1       -1.011   1.569  -2.471  0.00  0.00    +0.014 A 
ATOM     31  C   LIG    1       -1.446   2.217  -3.625  0.00  0.00    +0.039 A 
ENDBRANCH  23  29
ENDBRANCH  22  23
ENDBRANCH  21  22
ENDBRANCH  20  21
ENDBRANCH   1  20
TORSDOF 6
