REMARK  Name = DB17300
REMARK                            x       y       z     vdW  Elec       q    Type
REMARK                         _______ _______ _______ _____ _____    ______ ____
ROOT
ATOM      1  N   SER A  2        2.161  -0.890   0.939  0.00  0.00    -0.303 N 
ATOM      2  H   SER A  2        2.317  -1.888   0.949  0.00  0.00    +0.149 HD
ATOM      3  C   TYR A  1        2.550  -0.149   1.992  0.00  0.00    +0.199 C 
ATOM      4  O   TYR A  1        2.383   1.074   2.065  0.00  0.00    -0.278 OA
ENDROOT
BRANCH   1   5
ATOM      5  CA  SER A  2        1.425  -0.378  -0.218  0.00  0.00    +0.184 C 
BRANCH   5   8
ATOM      6  N   LEU A  3       -0.454   1.185  -0.296  0.00  0.00    -0.301 N 
ATOM      7  H   LEU A  3        0.133   1.715  -0.924  0.00  0.00    +0.150 HD
ATOM      8  C   SER A  2       -0.014   0.006   0.173  0.00  0.00    +0.236 C 
ATOM      9  O   SER A  2       -0.675  -0.761   0.874  0.00  0.00    -0.274 OA
BRANCH   6  10
ATOM     10  CA  LEU A  3       -1.754   1.802   0.013  0.00  0.00    +0.182 C 
BRANCH  10  11
ATOM     11  C   LEU A  3       -2.159   2.744  -1.185  0.00  0.00    +0.325 C 
ATOM     12  OXT LEU A  3       -3.330   2.579  -1.599  0.00  0.00    -0.249 OA
BRANCH  11  13
ATOM     13  O   LEU A  3       -1.299   3.574  -1.570  0.00  0.00    -0.479 OA
ATOM     14  H   LEU A  3       -1.493   4.155  -2.279  0.00  0.00    +0.295 HD
ENDBRANCH  11  13
ENDBRANCH  10  11
BRANCH  10  15
ATOM     15  CB  LEU A  3       -1.665   2.680   1.304  0.00  0.00    +0.036 C 
BRANCH  15  17
ATOM     16  CD1 LEU A  3       -2.853   1.032   2.877  0.00  0.00    +0.007 C 
ATOM     17  CG  LEU A  3       -1.604   1.911   2.645  0.00  0.00    -0.015 C 
ATOM     18  CD2 LEU A  3       -1.337   2.873   3.824  0.00  0.00    +0.007 C 
ENDBRANCH  15  17
ENDBRANCH  10  15
ENDBRANCH   6  10
ENDBRANCH   5   8
BRANCH   5  19
ATOM     19  CB  SER A  2        1.458  -1.442  -1.335  0.00  0.00    +0.187 C 
BRANCH  19  20
ATOM     20  OG  SER A  2        0.830  -0.981  -2.514  0.00  0.00    -0.393 OA
ATOM     21  H   SER A  2        0.837  -1.688  -3.164  0.00  0.00    +0.209 HD
ENDBRANCH  19  20
ENDBRANCH   5  19
ENDBRANCH   1   5
BRANCH   3  22
ATOM     22  CA  TYR A  1        3.197  -0.944   3.153  0.00  0.00    +0.017 C 
BRANCH  22  23
ATOM     23  N   TYR A  1        4.383  -0.144   3.627  0.00  0.00    +0.386 N 
ATOM     24  H1  TYR A  1        4.087   0.808   3.794  0.00  0.00    -0.089 HD
ATOM     25  H2  TYR A  1        4.727  -0.550   4.485  0.00  0.00    -0.089 HD
ATOM     26  H3  TYR A  1        5.104  -0.165   2.920  0.00  0.00    -0.089 HD
ENDBRANCH  22  23
BRANCH  22  27
ATOM     27  CB  TYR A  1        2.176  -1.226   4.286  0.00  0.00    +0.028 C 
BRANCH  27  28
ATOM     28  CG  TYR A  1        2.700  -2.054   5.451  0.00  0.00    -0.048 A 
ATOM     29  CD2 TYR A  1        2.915  -1.457   6.711  0.00  0.00    +0.007 A 
ATOM     30  CE2 TYR A  1        3.403  -2.226   7.785  0.00  0.00    +0.045 A 
ATOM     31  CZ  TYR A  1        3.679  -3.596   7.604  0.00  0.00    +0.117 A 
ATOM     32  CE1 TYR A  1        3.464  -4.195   6.347  0.00  0.00    +0.045 A 
ATOM     33  CD1 TYR A  1        2.974  -3.426   5.273  0.00  0.00    +0.007 A 
BRANCH  31  34
ATOM     34  OH  TYR A  1        4.152  -4.344   8.642  0.00  0.00    -0.507 OA
ATOM     35  HH  TYR A  1        4.251  -3.844   9.456  0.00  0.00    +0.292 HD
ENDBRANCH  31  34
ENDBRANCH  27  28
ENDBRANCH  22  27
ENDBRANCH   3  22
TORSDOF 14
