REMARK  Name = DB17823
REMARK                            x       y       z     vdW  Elec       q    Type
REMARK                         _______ _______ _______ _____ _____    ______ ____
ROOT
ATOM      1  C   LIG    1        3.596  -1.661  -0.015  0.00  0.00    +0.378 C 
ATOM      2  F   LIG    1        4.013  -1.002   1.070  0.00  0.00    -0.192 F 
ATOM      3  F   LIG    1        4.084  -0.982  -1.058  0.00  0.00    -0.192 F 
ENDROOT
BRANCH   1   4
ATOM      4  C   LIG    1        2.038  -1.609  -0.067  0.00  0.00    +0.317 C 
ATOM      5  F   LIG    1        1.591  -2.229  -1.162  0.00  0.00    -0.199 F 
ATOM      6  F   LIG    1        1.520  -2.265   0.974  0.00  0.00    -0.199 F 
BRANCH   4   7
ATOM      7  C   LIG    1        1.508  -0.153  -0.061  0.00  0.00    +0.082 C 
BRANCH   7   8
ATOM      8  C   LIG    1       -0.031  -0.038  -0.121  0.00  0.00    +0.006 C 
BRANCH   8   9
ATOM      9  C   LIG    1       -0.559   1.408  -0.020  0.00  0.00    +0.000 C 
BRANCH   9  10
ATOM     10  C   LIG    1       -0.200   2.301  -1.226  0.00  0.00    +0.000 C 
BRANCH  10  11
ATOM     11  C   LIG    1       -0.815   3.714  -1.172  0.00  0.00    -0.000 C 
BRANCH  11  12
ATOM     12  C   LIG    1       -0.274   4.595  -0.026  0.00  0.00    -0.000 C 
BRANCH  12  14
ATOM     13  C   LIG    1       -2.250   6.257   0.100  0.00  0.00    +0.004 C 
ATOM     14  C   LIG    1       -0.737   6.064  -0.086  0.00  0.00    -0.003 C 
ENDBRANCH  12  14
ENDBRANCH  11  12
ENDBRANCH  10  11
ENDBRANCH   9  10
ENDBRANCH   8   9
ENDBRANCH   7   8
ENDBRANCH   4   7
ENDBRANCH   1   4
BRANCH   1  15
ATOM     15  C   LIG    1        4.183  -3.111  -0.009  0.00  0.00    +0.384 C 
ATOM     16  F   LIG    1        3.750  -3.766  -1.089  0.00  0.00    -0.192 F 
ATOM     17  F   LIG    1        3.692  -3.778   1.039  0.00  0.00    -0.192 F 
BRANCH  15  18
ATOM     18  C   LIG    1        5.746  -3.158   0.032  0.00  0.00    +0.387 C 
ATOM     19  F   LIG    1        6.184  -2.491   1.103  0.00  0.00    -0.192 F 
ATOM     20  F   LIG    1        6.237  -2.506  -1.024  0.00  0.00    -0.192 F 
BRANCH  18  21
ATOM     21  C   LIG    1        6.332  -4.607   0.059  0.00  0.00    +0.409 C 
ATOM     22  F   LIG    1        5.909  -5.293  -1.005  0.00  0.00    -0.189 F 
ATOM     23  F   LIG    1        5.875  -5.265   1.127  0.00  0.00    -0.189 F 
BRANCH  21  24
ATOM     24  C   LIG    1        7.882  -4.651   0.085  0.00  0.00    +0.460 C 
ATOM     25  F   LIG    1        8.384  -4.027   1.152  0.00  0.00    -0.165 F 
ATOM     26  F   LIG    1        8.417  -4.068  -0.989  0.00  0.00    -0.165 F 
ATOM     27  F   LIG    1        8.330  -5.907   0.115  0.00  0.00    -0.165 F 
ENDBRANCH  21  24
ENDBRANCH  18  21
ENDBRANCH  15  18
ENDBRANCH   1  15
TORSDOF 12
