REMARK  Name = DB17283
REMARK                            x       y       z     vdW  Elec       q    Type
REMARK                         _______ _______ _______ _____ _____    ______ ____
ROOT
ATOM      1  C   LIG    1        1.531  -0.085   0.000  0.00  0.00    +0.139 A 
ATOM      2  O   LIG    1        2.058   1.171   0.000  0.00  0.00    -0.454 OA
ATOM      3  C   LIG    1        3.428   1.335   0.000  0.00  0.00    +0.146 A 
ATOM      4  C   LIG    1        3.882   2.652   0.000  0.00  0.00    +0.092 A 
ATOM      5  C   LIG    1        5.247   2.912   0.000  0.00  0.00    +0.124 A 
ATOM      6  C   LIG    1        6.154   1.855   0.000  0.00  0.00    +0.091 A 
ATOM      7  C   LIG    1        5.705   0.532   0.000  0.00  0.00    +0.135 A 
ATOM      8  C   LIG    1        4.321   0.247   0.000  0.00  0.00    +0.105 A 
ATOM      9  C   LIG    1        3.759  -1.152   0.000  0.00  0.00    +0.197 A 
ATOM     10  O   LIG    1        4.456  -2.166   0.000  0.00  0.00    -0.287 OA
ATOM     11  C   LIG    1        2.300  -1.199   0.000  0.00  0.00    +0.098 A 
ENDROOT
BRANCH   1  16
ATOM     12  C   LIG    1       -2.066   1.228   0.000  0.00  0.00    +0.162 A 
ATOM     13  C   LIG    1       -2.786   0.028   0.000  0.00  0.00    +0.158 A 
ATOM     14  C   LIG    1       -2.117  -1.194   0.000  0.00  0.00    +0.050 A 
ATOM     15  C   LIG    1       -0.725  -1.232   0.000  0.00  0.00    +0.015 A 
ATOM     16  C   LIG    1        0.035  -0.052   0.000  0.00  0.00    +0.021 A 
ATOM     17  C   LIG    1       -0.661   1.169   0.000  0.00  0.00    +0.061 A 
BRANCH  12  19
ATOM     18  C   LIG    1       -2.102   3.654   0.000  0.00  0.00    +0.277 C 
ATOM     19  O   LIG    1       -2.790   2.408   0.000  0.00  0.00    -0.491 OA
ENDBRANCH  12  19
BRANCH  13  20
ATOM     20  O   LIG    1       -4.158   0.035   0.000  0.00  0.00    -0.503 OA
ATOM     21  H   LIG    1       -4.540  -0.846   0.000  0.00  0.00    +0.292 HD
ENDBRANCH  13  20
ENDBRANCH   1  16
BRANCH   5  22
ATOM     22  O   LIG    1        5.699   4.203   0.000  0.00  0.00    -0.507 OA
ATOM     23  H   LIG    1        6.657   4.261   0.000  0.00  0.00    +0.292 HD
ENDBRANCH   5  22
BRANCH   7  24
ATOM     24  O   LIG    1        6.662  -0.451   0.000  0.00  0.00    -0.506 OA
ATOM     25  H   LIG    1        7.556  -0.101   0.000  0.00  0.00    +0.292 HD
ENDBRANCH   7  24
TORSDOF 5
