REMARK  Name = DB17141
REMARK                            x       y       z     vdW  Elec       q    Type
REMARK                         _______ _______ _______ _____ _____    ______ ____
ROOT
ATOM      1  C   LIG    1       -4.350  -0.050   0.389  0.00  0.00    +0.045 C 
ATOM      2  C   LIG    1       -2.835   0.035   0.224  0.00  0.00    -0.035 A 
ATOM      3  C   LIG    1       -2.168   1.258   0.013  0.00  0.00    +0.029 A 
ATOM      4  C   LIG    1       -0.777   1.272  -0.135  0.00  0.00    +0.030 A 
ATOM      5  C   LIG    1       -0.027   0.086  -0.075  0.00  0.00    +0.039 A 
ATOM      6  C   LIG    1       -0.703  -1.121   0.143  0.00  0.00    +0.013 A 
ATOM      7  C   LIG    1       -2.089  -1.145   0.286  0.00  0.00    +0.005 A 
ENDROOT
BRANCH   5   8
ATOM      8  C   LIG    1        1.478   0.093  -0.217  0.00  0.00    +0.260 C 
ATOM      9  N   LIG    1        1.991   1.111  -0.944  0.00  0.00    -0.230 N 
ATOM     10  H   LIG    1        1.547   2.017  -0.958  0.00  0.00    +0.173 HD
ATOM     11  O   LIG    1        2.153  -0.811   0.289  0.00  0.00    -0.269 OA
BRANCH   9  12
ATOM     12  N   LIG    1        3.374   1.222  -1.000  0.00  0.00    -0.230 N 
ATOM     13  H   LIG    1        3.828   0.498  -0.461  0.00  0.00    +0.173 HD
ATOM     14  C   LIG    1        3.883   2.469  -1.064  0.00  0.00    +0.262 C 
ATOM     15  O   LIG    1        3.233   3.511  -1.185  0.00  0.00    -0.269 OA
BRANCH  14  16
ATOM     16  C   LIG    1        5.386   2.522  -0.978  0.00  0.00    +0.059 A 
ATOM     17  C   LIG    1        6.013   2.778   0.259  0.00  0.00    +0.053 A 
ATOM     18 CL   LIG    1        5.113   3.043   1.719  0.00  0.00    -0.083 Cl
ATOM     19  C   LIG    1        7.404   2.824   0.340  0.00  0.00    +0.021 A 
ATOM     20  C   LIG    1        8.185   2.615  -0.792  0.00  0.00    +0.002 A 
ATOM     21  C   LIG    1        7.577   2.359  -2.017  0.00  0.00    +0.004 A 
ATOM     22  C   LIG    1        6.183   2.309  -2.126  0.00  0.00    -0.037 A 
ATOM     23  C   LIG    1        5.578   2.030  -3.499  0.00  0.00    +0.044 C 
ENDBRANCH  14  16
ENDBRANCH   9  12
ENDBRANCH   5   8
BRANCH   3  24
ATOM     24  C   LIG    1       -2.883   2.530  -0.046  0.00  0.00    -0.061 C 
ATOM     25  C   LIG    1       -3.484   3.594  -0.073  0.00  0.00    -0.059 C 
BRANCH  25  26
ATOM     26  C   LIG    1       -4.205   4.857  -0.081  0.00  0.00    +0.044 A 
ATOM     27  C   LIG    1       -3.570   6.037  -0.467  0.00  0.00    +0.128 A 
ATOM     28  N   LIG    1       -4.185   7.246  -0.491  0.00  0.00    -0.254 NA
ATOM     29  C   LIG    1       -5.494   7.314  -0.118  0.00  0.00    +0.071 A 
ATOM     30  C   LIG    1       -6.147   8.571  -0.136  0.00  0.00    +0.028 A 
ATOM     31  C   LIG    1       -7.484   8.669   0.240  0.00  0.00    +0.002 A 
ATOM     32  C   LIG    1       -8.196   7.540   0.635  0.00  0.00    +0.001 A 
ATOM     33  C   LIG    1       -7.583   6.289   0.665  0.00  0.00    +0.010 A 
ATOM     34  C   LIG    1       -6.224   6.155   0.290  0.00  0.00    +0.002 A 
ATOM     35  C   LIG    1       -5.546   4.911   0.302  0.00  0.00    +0.028 A 
ENDBRANCH  25  26
ENDBRANCH   3  24
TORSDOF 5
