REMARK  Name = DB17155
REMARK                            x       y       z     vdW  Elec       q    Type
REMARK                         _______ _______ _______ _____ _____    ______ ____
ROOT
ATOM      1  C   LIG    1       -0.008   0.030   0.497  0.00  0.00    +0.195 C 
ATOM      2  O   LIG    1       -0.639  -1.001   0.739  0.00  0.00    -0.287 OA
ENDROOT
BRANCH   1   9
ATOM      3  C   LIG    1       -0.272   5.349   1.492  0.00  0.00    +0.122 A 
ATOM      4  C   LIG    1       -1.382   4.868   0.779  0.00  0.00    +0.071 A 
ATOM      5  C   LIG    1       -1.422   3.501   0.485  0.00  0.00    +0.051 A 
ATOM      6  N   LIG    1       -2.375   2.752  -0.171  0.00  0.00    -0.360 N 
ATOM      7  H   LIG    1       -3.247   3.076  -0.565  0.00  0.00    +0.165 HD
ATOM      8  C   LIG    1       -1.988   1.439  -0.219  0.00  0.00    +0.095 A 
ATOM      9  C   LIG    1       -0.748   1.290   0.375  0.00  0.00    +0.047 A 
ATOM     10  C   LIG    1       -0.382   2.599   0.870  0.00  0.00    +0.011 A 
ATOM     11  C   LIG    1        0.701   3.117   1.601  0.00  0.00    +0.014 A 
ATOM     12  C   LIG    1        0.740   4.478   1.892  0.00  0.00    +0.046 A 
BRANCH   3  14
ATOM     13  C   LIG    1       -1.089   7.629   1.476  0.00  0.00    +0.277 C 
ATOM     14  O   LIG    1       -0.101   6.674   1.848  0.00  0.00    -0.495 OA
ENDBRANCH   3  14
ENDBRANCH   1   9
BRANCH   1  15
ATOM     15  C   LIG    1        1.488   0.010   0.339  0.00  0.00    +0.029 A 
ATOM     16  C   LIG    1        2.222  -1.080   0.824  0.00  0.00    +0.061 A 
ATOM     17  C   LIG    1        3.617  -1.146   0.677  0.00  0.00    +0.166 A 
ATOM     18  C   LIG    1        4.278  -0.098   0.023  0.00  0.00    +0.204 A 
ATOM     19  C   LIG    1        3.567   0.986  -0.504  0.00  0.00    +0.166 A 
ATOM     20  C   LIG    1        2.172   1.021  -0.350  0.00  0.00    +0.061 A 
BRANCH  17  21
ATOM     21  O   LIG    1        4.395  -2.190   1.143  0.00  0.00    -0.491 OA
ATOM     22  C   LIG    1        3.775  -3.282   1.812  0.00  0.00    +0.277 C 
ENDBRANCH  17  21
BRANCH  18  23
ATOM     23  O   LIG    1        5.643  -0.152  -0.132  0.00  0.00    -0.488 OA
ATOM     24  C   LIG    1        6.369   0.446   0.934  0.00  0.00    +0.277 C 
ENDBRANCH  18  23
BRANCH  19  25
ATOM     25  O   LIG    1        4.296   1.966  -1.154  0.00  0.00    -0.491 OA
ATOM     26  C   LIG    1        3.625   3.106  -1.681  0.00  0.00    +0.277 C 
ENDBRANCH  19  25
ENDBRANCH   1  15
TORSDOF 6
