REMARK  Name = DB17805
REMARK                            x       y       z     vdW  Elec       q    Type
REMARK                         _______ _______ _______ _____ _____    ______ ____
ROOT
ATOM      1  C   LIG    1        1.385   0.093  -0.013  0.00  0.00    +0.098 C 
ATOM      2  C   LIG    1        1.957   1.345   0.693  0.00  0.00    +0.024 C 
ATOM      3  C   LIG    1        3.468   1.516   0.632  0.00  0.00    +0.018 C 
ATOM      4  C   LIG    1        2.557   2.247  -0.344  0.00  0.00    +0.025 C 
ATOM      5  C   LIG    1        2.376   1.570  -1.721  0.00  0.00    +0.125 C 
ATOM      6  C   LIG    1        1.969   0.112  -1.445  0.00  0.00    +0.057 C 
ENDROOT
BRANCH   1  15
ATOM      7  C   LIG    1       -3.175   2.314   0.072  0.00  0.00    +0.051 C 
ATOM      8  C   LIG    1       -2.282   1.080   0.063  0.00  0.00    +0.030 A 
ATOM      9  C   LIG    1       -2.918  -0.233   0.091  0.00  0.00    +0.257 A 
ATOM     10  O   LIG    1       -4.129  -0.435   0.180  0.00  0.00    -0.267 OA
ATOM     11  N   LIG    1       -2.028  -1.262  -0.002  0.00  0.00    -0.275 N 
ATOM     12  H   LIG    1       -2.439  -2.184  -0.009  0.00  0.00    +0.173 HD
ATOM     13  C   LIG    1       -0.660  -1.237  -0.088  0.00  0.00    +0.330 A 
ATOM     14  O   LIG    1       -0.039  -2.295  -0.198  0.00  0.00    -0.246 OA
ATOM     15  N   LIG    1       -0.100   0.029  -0.059  0.00  0.00    -0.297 N 
ATOM     16  C   LIG    1       -0.933   1.127  -0.002  0.00  0.00    +0.099 A 
ENDBRANCH   1  15
BRANCH   5  17
ATOM     17  O   LIG    1        3.504   1.709  -2.560  0.00  0.00    -0.391 OA
ATOM     18  H   LIG    1        4.282   1.811  -2.006  0.00  0.00    +0.210 HD
ENDBRANCH   5  17
BRANCH   4  19
ATOM     19  C   LIG    1        2.417   3.778  -0.251  0.00  0.00    +0.165 C 
BRANCH  19  20
ATOM     20  O   LIG    1        3.466   4.415  -0.949  0.00  0.00    -0.394 OA
ATOM     21  H   LIG    1        3.350   5.365  -0.874  0.00  0.00    +0.209 HD
ENDBRANCH  19  20
ENDBRANCH   4  19
TORSDOF 4
