REMARK  Name = DB17622
REMARK                            x       y       z     vdW  Elec       q    Type
REMARK                         _______ _______ _______ _____ _____    ______ ____
ROOT
ATOM      1  C   LIG    1        1.986   0.688   1.251  0.00  0.00    +0.111 A 
ATOM      2  N   LIG    1        1.753   0.359   2.505  0.00  0.00    -0.228 NA
ATOM      3  C   LIG    1        2.394   1.266   3.229  0.00  0.00    +0.140 A 
ATOM      4  C   LIG    1        2.439   1.330   4.688  0.00  0.00    +0.253 C 
ATOM      5  C   LIG    1        3.277   2.515   5.307  0.00  0.00    +0.235 C 
ATOM      6  C   LIG    1        3.958   3.477   4.362  0.00  0.00    +0.035 A 
ATOM      7  C   LIG    1        3.864   3.343   2.956  0.00  0.00    +0.011 A 
ATOM      8  C   LIG    1        4.510   4.255   2.117  0.00  0.00    +0.011 A 
ATOM      9  C   LIG    1        5.251   5.304   2.656  0.00  0.00    +0.001 A 
ATOM     10  C   LIG    1        5.352   5.447   4.037  0.00  0.00    +0.001 A 
ATOM     11  C   LIG    1        4.711   4.541   4.882  0.00  0.00    +0.012 A 
ATOM     12  O   LIG    1        3.336   2.599   6.536  0.00  0.00    -0.283 OA
ATOM     13  O   LIG    1        1.886   0.549   5.465  0.00  0.00    -0.281 OA
ATOM     14  C   LIG    1        3.056   2.201   2.438  0.00  0.00    +0.078 A 
ATOM     15  N   LIG    1        2.777   1.805   1.157  0.00  0.00    -0.341 N 
ATOM     16  H   LIG    1        3.092   2.250   0.307  0.00  0.00    +0.167 HD
ENDROOT
BRANCH   1  18
ATOM     17  C   LIG    1       -0.079  -0.030  -0.017  0.00  0.00    +0.015 C 
ATOM     18  C   LIG    1        1.460  -0.057   0.033  0.00  0.00    +0.049 C 
ATOM     19  C   LIG    1        1.998  -1.498  -0.017  0.00  0.00    +0.015 C 
ENDBRANCH   1  18
TORSDOF 1
