REMARK  Name = DB17930
REMARK                            x       y       z     vdW  Elec       q    Type
REMARK                         _______ _______ _______ _____ _____    ______ ____
ROOT
ATOM      1  C   LIG    1        1.401  -0.009   0.000  0.00  0.00    +0.302 A 
ATOM      2  N   LIG    1        2.006  -1.263   0.000  0.00  0.00    -0.264 N 
ATOM      3  C   LIG    1        1.174  -2.479   0.000  0.00  0.00    +0.157 C 
ATOM      4  C   LIG    1        3.381  -1.442   0.000  0.00  0.00    +0.282 A 
ATOM      5  O   LIG    1        3.951  -2.534   0.000  0.00  0.00    -0.265 OA
ATOM      6  C   LIG    1        4.121  -0.177   0.000  0.00  0.00    +0.154 A 
ATOM      7  N   LIG    1        5.431   0.160   0.000  0.00  0.00    -0.289 N 
ATOM      8  C   LIG    1        6.562  -0.767   0.000  0.00  0.00    +0.154 C 
ATOM      9  C   LIG    1        5.591   1.510   0.000  0.00  0.00    +0.331 A 
ATOM     10  O   LIG    1        6.646   2.150   0.000  0.00  0.00    -0.246 OA
ATOM     11  N   LIG    1        4.324   1.991   0.000  0.00  0.00    -0.280 N 
ATOM     12  C   LIG    1        3.965   3.409   0.000  0.00  0.00    +0.155 C 
ATOM     13  C   LIG    1        3.448   0.973   0.000  0.00  0.00    +0.172 A 
ATOM     14  N   LIG    1        2.088   1.095   0.000  0.00  0.00    -0.177 NA
ENDROOT
BRANCH   1  16
ATOM     15  C   LIG    1       -0.648   1.285   0.000  0.00  0.00    +0.280 C 
ATOM     16  O   LIG    1        0.016   0.017   0.000  0.00  0.00    -0.467 OA
ENDBRANCH   1  16
TORSDOF 1
