REMARK  Name = DB17919
REMARK                            x       y       z     vdW  Elec       q    Type
REMARK                         _______ _______ _______ _____ _____    ______ ____
ROOT
ATOM      1  C   LIG    1        1.335   0.008  -0.040  0.00  0.00    -0.042 C 
ATOM      2  C   LIG    1        2.081   0.827  -1.083  0.00  0.00    -0.019 C 
ATOM      3  C   LIG    1        2.014   2.154  -1.288  0.00  0.00    +0.268 C 
ATOM      4  F   LIG    1        1.198   2.982  -0.600  0.00  0.00    -0.173 F 
ATOM      5  F   LIG    1        2.752   2.813  -2.207  0.00  0.00    -0.173 F 
ATOM      6  C   LIG    1        3.008  -0.173  -1.769  0.00  0.00    +0.049 C 
ATOM      7  C   LIG    1        3.376  -1.212  -0.680  0.00  0.00    +0.100 C 
ATOM      8  C   LIG    1        2.449  -0.887   0.506  0.00  0.00    +0.003 C 
ENDROOT
BRANCH   1   9
ATOM      9  N   LIG    1        0.107  -0.692  -0.643  0.00  0.00    +0.383 N 
ATOM     10  H   LIG    1        0.398  -1.319  -1.380  0.00  0.00    -0.089 HD
ATOM     11  H   LIG    1       -0.367  -1.231   0.067  0.00  0.00    -0.089 HD
ATOM     12  H   LIG    1       -0.536  -0.011  -1.021  0.00  0.00    -0.089 HD
ENDBRANCH   1   9
BRANCH   7  13
ATOM     13  C   LIG    1        3.412  -2.687  -1.151  0.00  0.00    +0.308 C 
ATOM     14  O   LIG    1        2.328  -3.220  -1.485  0.00  0.00    -0.251 OA
BRANCH  13  15
ATOM     15  O   LIG    1        4.521  -3.265  -1.182  0.00  0.00    -0.480 OA
ATOM     16  H   LIG    1        4.578  -4.157  -1.461  0.00  0.00    +0.295 HD
ENDBRANCH  13  15
ENDBRANCH   7  13
TORSDOF 3
