REMARK  Name = DB17936
REMARK                            x       y       z     vdW  Elec       q    Type
REMARK                         _______ _______ _______ _____ _____    ______ ____
ROOT
ATOM      1  S   LIG    1       -1.823   2.208   1.593  0.00  0.00    -0.035 S 
ATOM      2  C   LIG    1       -1.108   0.838   0.980  0.00  0.00    +0.085 C 
ATOM      3  C   LIG    1       -0.026   0.708   0.006  0.00  0.00    +0.013 A 
ATOM      4  C   LIG    1        0.708   1.680  -0.681  0.00  0.00    +0.011 A 
ATOM      5  C   LIG    1        1.705   1.273  -1.571  0.00  0.00    +0.001 A 
ATOM      6  C   LIG    1        1.963  -0.087  -1.771  0.00  0.00    +0.001 A 
ATOM      7  C   LIG    1        1.227  -1.055  -1.082  0.00  0.00    +0.011 A 
ATOM      8  C   LIG    1        0.230  -0.642  -0.192  0.00  0.00    +0.013 A 
ATOM      9  C   LIG    1       -0.680  -1.416   0.649  0.00  0.00    +0.085 C 
ATOM     10  S   LIG    1       -0.823  -3.064   0.819  0.00  0.00    -0.035 S 
ATOM     11  N   LIG    1       -1.399  -0.452   1.275  0.00  0.00    -0.302 N 
ATOM     12  H   LIG    1       -2.125  -0.687   1.936  0.00  0.00    +0.153 HD
ENDROOT
TORSDOF 0
