REMARK  Name = DB17223
REMARK                            x       y       z     vdW  Elec       q    Type
REMARK                         _______ _______ _______ _____ _____    ______ ____
ROOT
ATOM      1  C   LIG    1        1.054   2.707  -4.212  0.00  0.00    +0.168 C 
ATOM      2  O   LIG    1        0.625   3.846  -5.080  0.00  0.00    -0.368 OA
ATOM      3  C   LIG    1       -0.231   4.392  -3.986  0.00  0.00    +0.211 C 
ATOM      4  C   LIG    1        0.038   3.136  -3.122  0.00  0.00    +0.170 C 
ATOM      5  C   LIG    1       -1.194   2.170  -2.869  0.00  0.00    +0.098 C 
ATOM      6  C   LIG    1       -2.367   2.691  -1.918  0.00  0.00    +0.217 C 
ATOM      7  C   LIG    1       -2.672   1.915  -0.532  0.00  0.00    +0.116 C 
ATOM      8  C   LIG    1       -3.361   0.519  -0.748  0.00  0.00    +0.023 C 
ATOM      9  C   LIG    1       -3.716  -0.167   0.611  0.00  0.00    +0.018 C 
ATOM     10  C   LIG    1       -4.734   0.662  -1.488  0.00  0.00    +0.018 C 
ATOM     11  C   LIG    1       -2.285  -0.361  -1.449  0.00  0.00    -0.011 C 
ATOM     12  C   LIG    1       -1.063  -0.515  -0.861  0.00  0.00    -0.029 C 
ATOM     13  C   LIG    1       -0.625   0.393   0.306  0.00  0.00    +0.205 C 
ATOM     14  C   LIG    1       -0.015  -1.519  -1.351  0.00  0.00    +0.043 C 
ATOM     15  C   LIG    1       -2.532  -0.900  -2.864  0.00  0.00    +0.270 C 
ATOM     16  C   LIG    1       -2.776   0.260  -3.878  0.00  0.00    +0.188 C 
ATOM     17  O   LIG    1       -3.852   0.285  -4.485  0.00  0.00    -0.292 OA
ATOM     18  C   LIG    1       -1.363   1.780   0.322  0.00  0.00    +0.088 C 
ATOM     19  C   LIG    1       -1.656   1.347  -4.161  0.00  0.00    +0.077 C 
ATOM     20  C   LIG    1       -2.206   2.279  -5.293  0.00  0.00    +0.023 C 
ATOM     21  C   LIG    1       -0.423   0.554  -4.708  0.00  0.00    +0.196 C 
ATOM     22  C   LIG    1        0.886   1.352  -4.932  0.00  0.00    +0.081 C 
ENDROOT
BRANCH   7  23
ATOM     23  O   LIG    1       -3.540   2.812   0.156  0.00  0.00    -0.384 OA
ATOM     24  H   LIG    1       -4.297   2.994  -0.406  0.00  0.00    +0.210 HD
ENDBRANCH   7  23
BRANCH   4  25
ATOM     25  O   LIG    1        0.631   3.423  -1.833  0.00  0.00    -0.453 OA
BRANCH  25  26
ATOM     26  C   LIG    1        1.682   4.255  -1.580  0.00  0.00    +0.305 C 
ATOM     27  O   LIG    1        2.383   4.837  -2.407  0.00  0.00    -0.251 OA
ATOM     28  C   LIG    1        1.925   4.442  -0.087  0.00  0.00    +0.136 C 
ENDBRANCH  25  26
ENDBRANCH   4  25
BRANCH   6  29
ATOM     29  O   LIG    1       -2.124   4.090  -1.672  0.00  0.00    -0.454 OA
BRANCH  29  30
ATOM     30  C   LIG    1       -3.005   5.076  -2.011  0.00  0.00    +0.340 C 
ATOM     31  O   LIG    1       -4.094   4.864  -2.551  0.00  0.00    -0.245 OA
BRANCH  30  32
ATOM     32  C   LIG    1       -2.491   6.450  -1.699  0.00  0.00    +0.059 A 
ATOM     33  C   LIG    1       -3.218   7.569  -2.132  0.00  0.00    +0.015 A 
ATOM     34  C   LIG    1       -2.762   8.856  -1.860  0.00  0.00    +0.001 A 
ATOM     35  C   LIG    1       -1.577   9.034  -1.152  0.00  0.00    +0.000 A 
ATOM     36  C   LIG    1       -0.844   7.936  -0.712  0.00  0.00    +0.001 A 
ATOM     37  C   LIG    1       -1.300   6.648  -0.982  0.00  0.00    +0.015 A 
ENDBRANCH  30  32
ENDBRANCH  29  30
ENDBRANCH   6  29
BRANCH  13  38
ATOM     38  O   LIG    1        0.791   0.591   0.245  0.00  0.00    -0.455 OA
BRANCH  38  39
ATOM     39  C   LIG    1        1.535   0.858   1.348  0.00  0.00    +0.339 C 
ATOM     40  O   LIG    1        1.091   1.070   2.478  0.00  0.00    -0.248 OA
BRANCH  39  41
ATOM     41  C   LIG    1        3.055   0.815   1.091  0.00  0.00    +0.247 C 
BRANCH  41  42
ATOM     42  O   LIG    1        3.336   1.549  -0.091  0.00  0.00    -0.379 OA
ATOM     43  H   LIG    1        3.071   2.462   0.043  0.00  0.00    +0.211 HD
ENDBRANCH  41  42
BRANCH  41  44
ATOM     44  C   LIG    1        3.607  -0.643   0.990  0.00  0.00    +0.143 C 
BRANCH  44  45
ATOM     45  C   LIG    1        3.380  -1.458   2.268  0.00  0.00    -0.024 A 
ATOM     46  C   LIG    1        4.003  -1.079   3.463  0.00  0.00    +0.005 A 
ATOM     47  C   LIG    1        3.785  -1.811   4.627  0.00  0.00    +0.000 A 
ATOM     48  C   LIG    1        2.942  -2.920   4.597  0.00  0.00    +0.000 A 
ATOM     49  C   LIG    1        2.314  -3.302   3.414  0.00  0.00    +0.000 A 
ATOM     50  C   LIG    1        2.531  -2.571   2.250  0.00  0.00    +0.005 A 
ENDBRANCH  44  45
BRANCH  44  51
ATOM     51  N   LIG    1        5.029  -0.689   0.614  0.00  0.00    -0.301 N 
ATOM     52  H   LIG    1        5.682  -0.489   1.357  0.00  0.00    +0.150 HD
ATOM     53  C   LIG    1        5.524  -0.855  -0.629  0.00  0.00    +0.245 C 
ATOM     54  O   LIG    1        4.808  -1.024  -1.619  0.00  0.00    -0.270 OA
BRANCH  53  55
ATOM     55  C   LIG    1        7.033  -0.861  -0.754  0.00  0.00    +0.037 A 
ATOM     56  C   LIG    1        7.854  -0.313   0.246  0.00  0.00    +0.013 A 
ATOM     57  C   LIG    1        9.239  -0.326   0.109  0.00  0.00    +0.001 A 
ATOM     58  C   LIG    1        9.815  -0.884  -1.029  0.00  0.00    +0.000 A 
ATOM     59  C   LIG    1        9.018  -1.427  -2.032  0.00  0.00    +0.001 A 
ATOM     60  C   LIG    1        7.632  -1.414  -1.895  0.00  0.00    +0.013 A 
ENDBRANCH  53  55
ENDBRANCH  44  51
ENDBRANCH  41  44
ENDBRANCH  39  41
ENDBRANCH  38  39
ENDBRANCH  13  38
BRANCH  15  61
ATOM     61  O   LIG    1       -3.584  -1.874  -2.847  0.00  0.00    -0.449 OA
BRANCH  61  62
ATOM     62  C   LIG    1       -3.663  -2.873  -3.761  0.00  0.00    +0.305 C 
ATOM     63  O   LIG    1       -2.883  -3.075  -4.692  0.00  0.00    -0.251 OA
ATOM     64  C   LIG    1       -4.869  -3.773  -3.528  0.00  0.00    +0.136 C 
ENDBRANCH  61  62
ENDBRANCH  15  61
BRANCH  21  65
ATOM     65  O   LIG    1       -0.731  -0.224  -5.876  0.00  0.00    -0.429 OA
BRANCH  65  66
ATOM     66  C   LIG    1       -0.238  -1.468  -6.068  0.00  0.00    +0.511 C 
ATOM     67  O   LIG    1        0.577  -2.050  -5.346  0.00  0.00    -0.203 OA
BRANCH  66  68
ATOM     68  O   LIG    1       -0.828  -1.968  -7.168  0.00  0.00    -0.431 OA
BRANCH  68  69
ATOM     69  C   LIG    1       -0.566  -3.302  -7.589  0.00  0.00    +0.269 C 
BRANCH  69  70
ATOM     70  C   LIG    1       -1.512  -3.693  -8.739  0.00  0.00    +0.177 C 
BRANCH  70  71
ATOM     71  O   LIG    1       -2.841  -3.733  -8.245  0.00  0.00    -0.386 OA
ATOM     72  H   LIG    1       -3.038  -2.888  -7.833  0.00  0.00    +0.210 HD
ENDBRANCH  70  71
BRANCH  70  73
ATOM     73  C   LIG    1       -1.154  -5.072  -9.330  0.00  0.00    +0.190 C 
BRANCH  73  74
ATOM     74  O   LIG    1       -1.881  -5.324 -10.516  0.00  0.00    -0.392 OA
ATOM     75  H   LIG    1       -2.810  -5.407 -10.289  0.00  0.00    +0.210 HD
ENDBRANCH  73  74
ENDBRANCH  70  73
ENDBRANCH  69  70
ENDBRANCH  68  69
ENDBRANCH  66  68
ENDBRANCH  65  66
ENDBRANCH  21  65
TORSDOF 24
