REMARK  Name = DB17694
REMARK                            x       y       z     vdW  Elec       q    Type
REMARK                         _______ _______ _______ _____ _____    ______ ____
ROOT
ATOM      1  C   LIG    1       -5.696  -1.856   0.824  0.00  0.00    -0.019 A 
ATOM      2  C   LIG    1       -4.582  -1.042   0.706  0.00  0.00    +0.045 A 
ATOM      3  N   LIG    1       -4.958   0.244   0.831  0.00  0.00    -0.355 N 
ATOM      4  H   LIG    1       -4.348   1.045   0.790  0.00  0.00    +0.166 HD
ATOM      5  C   LIG    1       -6.290   0.274   1.019  0.00  0.00    +0.045 A 
ATOM      6  C   LIG    1       -7.045   1.437   1.198  0.00  0.00    +0.051 C 
ATOM      7  C   LIG    1       -6.597   2.761   1.215  0.00  0.00    +0.045 A 
ATOM      8  C   LIG    1       -7.394   3.879   1.397  0.00  0.00    -0.019 A 
ATOM      9  C   LIG    1       -6.555   4.974   1.367  0.00  0.00    -0.022 A 
ATOM     10  C   LIG    1       -6.966   6.428   1.542  0.00  0.00    +0.046 C 
ATOM     11  C   LIG    1       -5.276   4.493   1.142  0.00  0.00    +0.045 A 
ATOM     12  C   LIG    1       -4.122   5.273   1.023  0.00  0.00    +0.051 C 
ATOM     13  C   LIG    1       -2.810   4.845   0.805  0.00  0.00    +0.045 A 
ATOM     14  C   LIG    1       -1.699   5.663   0.697  0.00  0.00    -0.022 A 
ATOM     15  C   LIG    1       -1.682   7.182   0.785  0.00  0.00    +0.046 C 
ATOM     16  C   LIG    1       -0.609   4.835   0.512  0.00  0.00    -0.019 A 
ATOM     17  C   LIG    1       -1.095   3.537   0.489  0.00  0.00    +0.045 A 
ATOM     18  C   LIG    1       -0.348   2.368   0.314  0.00  0.00    +0.051 C 
ATOM     19  C   LIG    1       -0.799   1.045   0.295  0.00  0.00    +0.045 A 
ATOM     20  C   LIG    1       -0.002  -0.072   0.108  0.00  0.00    -0.019 A 
ATOM     21  C   LIG    1       -0.841  -1.168   0.134  0.00  0.00    -0.022 A 
ATOM     22  C   LIG    1       -0.432  -2.621  -0.053  0.00  0.00    +0.046 C 
ATOM     23  C   LIG    1       -2.118  -0.687   0.365  0.00  0.00    +0.045 A 
ATOM     24  N   LIG    1       -2.080   0.657   0.454  0.00  0.00    -0.355 N 
ATOM     25  H   LIG    1       -2.867   1.264   0.614  0.00  0.00    +0.166 HD
ATOM     26  N   LIG    1       -2.428   3.562   0.671  0.00  0.00    -0.355 N 
ATOM     27  H   LIG    1       -3.034   2.758   0.706  0.00  0.00    +0.166 HD
ATOM     28  N   LIG    1       -5.316   3.148   1.055  0.00  0.00    -0.355 N 
ATOM     29  H   LIG    1       -4.527   2.541   0.901  0.00  0.00    +0.166 HD
ATOM     30  C   LIG    1       -3.270  -1.469   0.487  0.00  0.00    +0.051 C 
ATOM     31  C   LIG    1       -6.780  -1.021   1.007  0.00  0.00    -0.022 A 
ATOM     32  C   LIG    1       -8.231  -1.450   1.170  0.00  0.00    +0.046 C 
ENDROOT
BRANCH   1  34
ATOM     33  C   LIG    1       -5.802  -3.908  -0.677  0.00  0.00    +0.009 C 
ATOM     34  C   LIG    1       -5.730  -3.379   0.761  0.00  0.00    +0.034 C 
ENDBRANCH   1  34
BRANCH   8  35
ATOM     35  C   LIG    1       -8.905   3.911   1.601  0.00  0.00    +0.034 C 
ATOM     36  C   LIG    1       -9.305   3.738   3.072  0.00  0.00    +0.009 C 
ENDBRANCH   8  35
BRANCH  16  37
ATOM     37  C   LIG    1        0.845   5.297   0.387  0.00  0.00    +0.048 C 
BRANCH  37  38
ATOM     38  C   LIG    1        1.459   5.842   1.707  0.00  0.00    +0.125 C 
BRANCH  38  39
ATOM     39  C   LIG    1        1.382   4.874   2.912  0.00  0.00    +0.305 C 
ATOM     40  O   LIG    1        1.101   5.373   4.025  0.00  0.00    -0.251 OA
BRANCH  39  41
ATOM     41  O   LIG    1        1.620   3.659   2.725  0.00  0.00    -0.481 OA
ATOM     42  H   LIG    1        1.578   3.057   3.442  0.00  0.00    +0.295 HD
ENDBRANCH  39  41
ENDBRANCH  38  39
ENDBRANCH  37  38
ENDBRANCH  16  37
BRANCH  20  43
ATOM     43  C   LIG    1        1.507  -0.099  -0.104  0.00  0.00    +0.048 C 
BRANCH  43  44
ATOM     44  C   LIG    1        1.891   0.133  -1.589  0.00  0.00    +0.125 C 
BRANCH  44  45
ATOM     45  C   LIG    1        3.409   0.125  -1.889  0.00  0.00    +0.305 C 
ATOM     46  O   LIG    1        3.739   0.449  -3.052  0.00  0.00    -0.251 OA
BRANCH  45  47
ATOM     47  O   LIG    1        4.225  -0.205  -0.996  0.00  0.00    -0.481 OA
ATOM     48  H   LIG    1        5.144  -0.209  -1.180  0.00  0.00    +0.295 HD
ENDBRANCH  45  47
ENDBRANCH  44  45
ENDBRANCH  43  44
ENDBRANCH  20  43
TORSDOF 10
