REMARK  Name = DB17839
REMARK                            x       y       z     vdW  Elec       q    Type
REMARK                         _______ _______ _______ _____ _____    ______ ____
ROOT
ATOM      1  CA  LYS A  1        2.094  -1.459   0.099  0.00  0.00    +0.036 C 
ENDROOT
BRANCH   1   2
ATOM      2  N   LYS A  1        1.684  -2.202   1.342  0.00  0.00    +0.387 N 
ATOM      3  H1  LYS A  1        2.048  -1.718   2.150  0.00  0.00    -0.089 HD
ATOM      4  H2  LYS A  1        0.675  -2.232   1.386  0.00  0.00    -0.089 HD
ATOM      5  H3  LYS A  1        2.051  -3.142   1.298  0.00  0.00    -0.089 HD
ENDBRANCH   1   2
BRANCH   1   6
ATOM      6  C   LYS A  1        3.669  -1.502  -0.026  0.00  0.00    +0.290 C 
ATOM      7  OXT LYS A  1        4.164  -0.623  -0.767  0.00  0.00    -0.253 OA
BRANCH   6   8
ATOM      8  O   LYS A  1        4.257  -2.467   0.520  0.00  0.00    -0.482 OA
ATOM      9  H   LYS A  1        5.190  -2.534   0.472  0.00  0.00    +0.295 HD
ENDBRANCH   6   8
ENDBRANCH   1   6
BRANCH   1  10
ATOM     10  CB  LYS A  1        1.502  -0.021   0.033  0.00  0.00    -0.005 C 
BRANCH  10  11
ATOM     11  CG  LYS A  1       -0.036   0.029   0.088  0.00  0.00    -0.003 C 
BRANCH  11  12
ATOM     12  CD  LYS A  1       -0.579   1.460  -0.049  0.00  0.00    -0.020 C 
BRANCH  12  13
ATOM     13  CE  LYS A  1       -2.115   1.516  -0.018  0.00  0.00    -0.086 C 
BRANCH  13  14
ATOM     14  NZ  LYS A  1       -2.615   2.896  -0.164  0.00  0.00    +0.378 N 
ATOM     15  HZ1 LYS A  1       -2.259   3.466   0.591  0.00  0.00    -0.090 HD
ATOM     16  HZ2 LYS A  1       -2.305   3.277  -1.046  0.00  0.00    -0.090 HD
ATOM     17  HZ3 LYS A  1       -3.625   2.895  -0.136  0.00  0.00    -0.090 HD
ENDBRANCH  13  14
ENDBRANCH  12  13
ENDBRANCH  11  12
ENDBRANCH  10  11
ENDBRANCH   1  10
TORSDOF 8
