REMARK  Name = DB17749
REMARK                            x       y       z     vdW  Elec       q    Type
REMARK                         _______ _______ _______ _____ _____    ______ ____
ROOT
ATOM      1  C   LIG    1        5.465  -3.100  -0.018  0.00  0.00    +0.051 C 
ATOM      2  C   LIG    1        5.929  -4.459   0.007  0.00  0.00    +0.024 C 
ATOM      3  C   LIG    1        5.068  -5.592  -0.081  0.00  0.00    +0.009 C 
ATOM      4  C   LIG    1        5.585  -6.887  -0.047  0.00  0.00    +0.021 C 
ATOM      5  C   LIG    1        6.955  -7.107   0.074  0.00  0.00    +0.073 C 
ATOM      6 CL   LIG    1        7.563  -8.722   0.117  0.00  0.00    -0.116 Cl
ATOM      7  C   LIG    1        7.838  -6.035   0.162  0.00  0.00    +0.041 C 
ATOM      8  C   LIG    1        7.330  -4.718   0.128  0.00  0.00    +0.052 C 
ATOM      9  N   LIG    1        8.178  -3.640   0.212  0.00  0.00    -0.303 NA
ATOM     10  H   LIG    1        9.169  -3.817   0.296  0.00  0.00    +0.123 HD
ATOM     11  C   LIG    1        7.772  -2.362   0.188  0.00  0.00    +0.077 C 
ATOM     12  C   LIG    1        6.417  -2.071   0.075  0.00  0.00    +0.036 C 
ENDROOT
BRANCH   1  13
ATOM     13  N   LIG    1        4.089  -2.816  -0.130  0.00  0.00    -0.308 NA
ATOM     14  H   LIG    1        3.435  -3.583  -0.193  0.00  0.00    +0.123 HD
BRANCH  13  15
ATOM     15  C   LIG    1        3.561  -1.458  -0.158  0.00  0.00    +0.079 C 
BRANCH  15  16
ATOM     16  C   LIG    1        2.030  -1.407  -0.281  0.00  0.00    -0.003 C 
BRANCH  16  17
ATOM     17  C   LIG    1        1.500   0.040  -0.327  0.00  0.00    -0.078 C 
BRANCH  17  18
ATOM     18  N   LIG    1       -0.040   0.114  -0.143  0.00  0.00    +0.379 N 
ATOM     19  H   LIG    1       -0.261  -0.402   0.697  0.00  0.00    -0.082 HD
BRANCH  18  21
ATOM     20  C   LIG    1       -2.304  -0.746  -1.008  0.00  0.00    -0.017 C 
ATOM     21  C   LIG    1       -0.803  -0.577  -1.307  0.00  0.00    -0.082 C 
ENDBRANCH  18  21
BRANCH  18  22
ATOM     22  C   LIG    1       -0.528   1.571   0.086  0.00  0.00    -0.082 C 
ATOM     23  C   LIG    1        0.017   2.176   1.393  0.00  0.00    -0.017 C 
ENDBRANCH  18  22
ENDBRANCH  17  18
ENDBRANCH  16  17
ENDBRANCH  15  16
ENDBRANCH  13  15
ENDBRANCH   1  13
TORSDOF 7
