REMARK  Name = DB17129
REMARK                            x       y       z     vdW  Elec       q    Type
REMARK                         _______ _______ _______ _____ _____    ______ ____
ROOT
ATOM      1  C   LIG    1       -1.511  -1.721   4.659  0.00  0.00    +0.070 C 
ATOM      2  C   LIG    1       -1.167  -1.502   3.201  0.00  0.00    +0.089 A 
ATOM      3  C   LIG    1       -0.481  -0.446   2.581  0.00  0.00    +0.050 A 
ATOM      4  C   LIG    1        0.183   0.761   3.146  0.00  0.00    -0.004 A 
ATOM      5  C   LIG    1        0.805   0.650   4.397  0.00  0.00    +0.009 A 
ATOM      6  C   LIG    1        1.502   1.718   4.951  0.00  0.00    +0.001 A 
ATOM      7  C   LIG    1        1.599   2.911   4.250  0.00  0.00    +0.001 A 
ATOM      8  C   LIG    1        0.994   3.033   3.003  0.00  0.00    +0.010 A 
ATOM      9  C   LIG    1        0.264   1.979   2.418  0.00  0.00    +0.008 A 
ATOM     10  C   LIG    1       -0.374   2.232   1.076  0.00  0.00    +0.074 C 
ATOM     11  N   LIG    1       -0.473   1.432   0.068  0.00  0.00    -0.271 NA
ATOM     12  C   LIG    1       -0.020   0.039   0.046  0.00  0.00    +0.184 C 
ATOM     13  C   LIG    1       -0.518  -0.739   1.246  0.00  0.00    +0.170 A 
ATOM     14  O   LIG    1       -1.144  -1.927   1.068  0.00  0.00    -0.357 OA
ATOM     15  N   LIG    1       -1.546  -2.401   2.317  0.00  0.00    -0.083 NA
ENDROOT
BRANCH  10  16
ATOM     16  C   LIG    1       -0.946   3.585   0.880  0.00  0.00    +0.001 A 
ATOM     17  C   LIG    1       -0.639   4.327  -0.270  0.00  0.00    +0.011 A 
ATOM     18  C   LIG    1       -1.179   5.598  -0.450  0.00  0.00    +0.020 A 
ATOM     19  C   LIG    1       -2.031   6.130   0.516  0.00  0.00    +0.041 A 
ATOM     20 CL   LIG    1       -2.700   7.705   0.291  0.00  0.00    -0.084 Cl
ATOM     21  C   LIG    1       -2.347   5.401   1.660  0.00  0.00    +0.020 A 
ATOM     22  C   LIG    1       -1.808   4.130   1.842  0.00  0.00    +0.011 A 
ENDBRANCH  10  16
BRANCH  12  23
ATOM     23  C   LIG    1        1.526  -0.066  -0.114  0.00  0.00    +0.130 C 
BRANCH  23  24
ATOM     24  C   LIG    1        2.098   0.525  -1.415  0.00  0.00    +0.213 C 
ATOM     25  O   LIG    1        1.432   0.559  -2.448  0.00  0.00    -0.276 OA
ATOM     26  N   LIG    1        3.351   0.983  -1.371  0.00  0.00    -0.329 N 
ATOM     27  H   LIG    1        3.773   1.377  -2.199  0.00  0.00    +0.145 HD
ATOM     28  H   LIG    1        3.881   0.944  -0.513  0.00  0.00    +0.145 HD
ENDBRANCH  23  24
ENDBRANCH  12  23
TORSDOF 3
