REMARK  Name = DB17077
REMARK                            x       y       z     vdW  Elec       q    Type
REMARK                         _______ _______ _______ _____ _____    ______ ____
ROOT
ATOM      1  C   LIG    1        1.091   0.518   0.027  0.00  0.00    +0.050 A 
ATOM      2  C   LIG    1        1.981   1.590  -0.106  0.00  0.00    +0.054 A 
ATOM      3  C   LIG    1        3.357   1.320  -0.091  0.00  0.00    +0.091 A 
ATOM      4  N   LIG    1        4.400   2.191  -0.184  0.00  0.00    -0.232 NA
ATOM      5  C   LIG    1        5.495   1.464  -0.110  0.00  0.00    +0.116 A 
ATOM      6  N   LIG    1        5.202   0.100  -0.007  0.00  0.00    -0.327 N 
ATOM      7  C   LIG    1        3.820  -0.005   0.039  0.00  0.00    +0.069 A 
ATOM      8  C   LIG    1        2.936  -1.083   0.176  0.00  0.00    +0.030 A 
ATOM      9  C   LIG    1        1.571  -0.787   0.163  0.00  0.00    +0.026 A 
ENDROOT
BRANCH   5  10
ATOM     10  C   LIG    1        6.905   2.119  -0.083  0.00  0.00    +0.020 C 
ATOM     11  C   LIG    1        7.501   2.032   1.343  0.00  0.00    +0.019 C 
ATOM     12  C   LIG    1        7.876   1.486  -1.109  0.00  0.00    +0.019 C 
ATOM     13  C   LIG    1        6.818   3.630  -0.445  0.00  0.00    +0.019 C 
ENDBRANCH   5  10
BRANCH   1  14
ATOM     14  N   LIG    1       -0.296   0.713   0.015  0.00  0.00    -0.221 N 
ATOM     15  H   LIG    1       -0.861  -0.119  -0.071  0.00  0.00    +0.173 HD
BRANCH  14  16
ATOM     16  S   LIG    1       -1.057   2.080   0.849  0.00  0.00    +0.043 S 
ATOM     17  O   LIG    1       -0.608   2.046   2.245  0.00  0.00    -0.155 OA
ATOM     18  O   LIG    1       -0.825   3.280   0.038  0.00  0.00    -0.155 OA
BRANCH  16  20
ATOM     19  C   LIG    1       -3.728   2.735   1.451  0.00  0.00    +0.030 C 
ATOM     20  C   LIG    1       -2.893   1.637   0.780  0.00  0.00    +0.185 C 
ENDBRANCH  16  20
ENDBRANCH  14  16
ENDBRANCH   1  14
BRANCH   6  21
ATOM     21  C   LIG    1        6.121  -1.042   0.064  0.00  0.00    +0.127 C 
BRANCH  21  22
ATOM     22  C   LIG    1        6.442  -1.652  -1.330  0.00  0.00    +0.009 C 
ATOM     23  C   LIG    1        7.573  -2.698  -1.213  0.00  0.00    +0.011 C 
ATOM     24  C   LIG    1        8.004  -3.230  -2.596  0.00  0.00    +0.076 C 
ATOM     25  C   LIG    1        6.816  -3.803  -3.405  0.00  0.00    +0.249 C 
ATOM     26  F   LIG    1        7.191  -4.128  -4.642  0.00  0.00    -0.206 F 
ATOM     27  F   LIG    1        6.429  -4.922  -2.786  0.00  0.00    -0.206 F 
ATOM     28  C   LIG    1        5.595  -2.854  -3.424  0.00  0.00    +0.076 C 
ATOM     29  C   LIG    1        5.231  -2.325  -2.020  0.00  0.00    +0.011 C 
ENDBRANCH  21  22
ENDBRANCH   6  21
TORSDOF 6
