REMARK  Name = DB17023
REMARK                            x       y       z     vdW  Elec       q    Type
REMARK                         _______ _______ _______ _____ _____    ______ ____
ROOT
ATOM      1  N   LIG    1        4.449   5.780   1.991  0.00  0.00    -0.181 N 
ATOM      2  H   LIG    1        4.210   5.426   1.104  0.00  0.00    +0.177 HD
ATOM      3  C   LIG    1        5.082   6.928   2.085  0.00  0.00    +0.263 C 
ATOM      4  O   LIG    1        5.447   7.471   3.133  0.00  0.00    -0.269 OA
ENDROOT
BRANCH   3   5
ATOM      5  C   LIG    1        5.368   7.630   0.761  0.00  0.00    +0.038 A 
ATOM      6  C   LIG    1        5.989   8.886   0.763  0.00  0.00    +0.015 A 
ATOM      7  C   LIG    1        6.263   9.556  -0.426  0.00  0.00    +0.024 A 
ATOM      8  C   LIG    1        5.949   8.993  -1.673  0.00  0.00    +0.030 A 
ATOM      9  C   LIG    1        5.303   7.746  -1.671  0.00  0.00    +0.024 A 
ATOM     10  C   LIG    1        5.027   7.073  -0.484  0.00  0.00    +0.015 A 
BRANCH   8  11
ATOM     11  N   LIG    1        6.189   9.692  -2.865  0.00  0.00    -0.333 N 
ATOM     12  C   LIG    1        6.086   9.056  -4.196  0.00  0.00    +0.086 C 
ATOM     13  C   LIG    1        7.378   8.306  -4.596  0.00  0.00    -0.059 C 
ATOM     14  N   LIG    1        8.534   9.326  -4.659  0.00  0.00    +0.384 N 
ATOM     15  H   LIG    1        8.307  10.018  -5.360  0.00  0.00    -0.081 HD
ATOM     16  C   LIG    1        8.639  10.045  -3.298  0.00  0.00    -0.059 C 
ATOM     17  C   LIG    1        7.272  10.694  -2.980  0.00  0.00    +0.086 C 
BRANCH  14  18
ATOM     18  C   LIG    1        9.874   8.656  -5.040  0.00  0.00    -0.042 C 
BRANCH  18  19
ATOM     19  C   LIG    1        9.923   8.091  -6.461  0.00  0.00    -0.056 A 
ATOM     20  C   LIG    1        9.725   8.902  -7.601  0.00  0.00    -0.017 A 
ATOM     21  C   LIG    1        9.746   8.303  -8.867  0.00  0.00    +0.009 A 
ATOM     22  C   LIG    1        9.981   6.938  -9.013  0.00  0.00    +0.001 A 
ATOM     23  C   LIG    1       10.193   6.147  -7.888  0.00  0.00    +0.000 A 
ATOM     24  C   LIG    1       10.162   6.721  -6.619  0.00  0.00    +0.002 A 
BRANCH  20  25
ATOM     25  C   LIG    1        9.458  10.363  -7.506  0.00  0.00    -0.018 A 
ATOM     26  C   LIG    1       10.424  11.234  -6.988  0.00  0.00    +0.010 A 
ATOM     27  C   LIG    1       10.160  12.597  -6.883  0.00  0.00    +0.020 A 
ATOM     28  C   LIG    1        8.929  13.096  -7.303  0.00  0.00    +0.041 A 
ATOM     29 CL   LIG    1        8.598  14.785  -7.169  0.00  0.00    -0.084 Cl
ATOM     30  C   LIG    1        7.964  12.242  -7.833  0.00  0.00    +0.020 A 
ATOM     31  C   LIG    1        8.231  10.880  -7.936  0.00  0.00    +0.010 A 
ENDBRANCH  20  25
ENDBRANCH  18  19
ENDBRANCH  14  18
ENDBRANCH   8  11
ENDBRANCH   3   5
BRANCH   1  32
ATOM     32  S   LIG    1        4.070   4.966   3.280  0.00  0.00    +0.075 S 
ATOM     33  O   LIG    1        5.218   4.353   3.959  0.00  0.00    -0.150 OA
ATOM     34  O   LIG    1        3.046   5.607   4.114  0.00  0.00    -0.150 OA
BRANCH  32  38
ATOM     35  C   LIG    1        1.966   1.444   1.168  0.00  0.00    +0.058 A 
ATOM     36  C   LIG    1        3.383   1.549   1.131  0.00  0.00    +0.144 A 
ATOM     37  C   LIG    1        3.987   2.634   1.793  0.00  0.00    +0.063 A 
ATOM     38  C   LIG    1        3.240   3.586   2.484  0.00  0.00    +0.111 A 
ATOM     39  C   LIG    1        1.855   3.466   2.527  0.00  0.00    +0.031 A 
ATOM     40  C   LIG    1        1.229   2.408   1.877  0.00  0.00    +0.027 A 
BRANCH  35  41
ATOM     41  N   LIG    1        1.307   0.389   0.501  0.00  0.00    -0.338 N 
ATOM     42  H   LIG    1        1.888  -0.260  -0.012  0.00  0.00    +0.146 HD
BRANCH  41  43
ATOM     43  C   LIG    1       -0.141   0.229   0.349  0.00  0.00    +0.079 C 
BRANCH  43  44
ATOM     44  C   LIG    1       -0.718  -0.783   1.372  0.00  0.00    +0.004 C 
BRANCH  44  45
ATOM     45  C   LIG    1       -0.584  -0.345   2.845  0.00  0.00    -0.078 C 
BRANCH  45  47
ATOM     46  C   LIG    1       -2.615  -1.700   3.699  0.00  0.00    -0.097 C 
ATOM     47  N   LIG    1       -1.099  -1.436   3.813  0.00  0.00    +0.376 N 
ATOM     48  H   LIG    1       -0.623  -2.295   3.574  0.00  0.00    -0.083 HD
ATOM     49  C   LIG    1       -0.715  -1.106   5.269  0.00  0.00    -0.097 C 
ENDBRANCH  45  47
ENDBRANCH  44  45
ENDBRANCH  43  44
BRANCH  43  50
ATOM     50  C   LIG    1       -0.470  -0.179  -1.103  0.00  0.00    +0.096 C 
BRANCH  50  51
ATOM     51  S   LIG    1       -2.231  -0.130  -1.552  0.00  0.00    -0.123 S 
BRANCH  51  52
ATOM     52  C   LIG    1       -2.283  -0.542  -3.266  0.00  0.00    +0.008 A 
ATOM     53  C   LIG    1       -1.703   0.314  -4.204  0.00  0.00    +0.015 A 
ATOM     54  C   LIG    1       -1.750  -0.014  -5.556  0.00  0.00    +0.001 A 
ATOM     55  C   LIG    1       -2.376  -1.193  -5.959  0.00  0.00    +0.000 A 
ATOM     56  C   LIG    1       -2.956  -2.047  -5.022  0.00  0.00    +0.001 A 
ATOM     57  C   LIG    1       -2.911  -1.720  -3.669  0.00  0.00    +0.015 A 
ENDBRANCH  51  52
ENDBRANCH  50  51
ENDBRANCH  43  50
ENDBRANCH  41  43
ENDBRANCH  35  41
BRANCH  36  58
ATOM     58  N   LIG    1        4.273   0.578   0.420  0.00  0.00    +0.008 N 
ATOM     59  O   LIG    1        3.803  -0.411  -0.133  0.00  0.00    -0.130 OA
BRANCH  58  60
ATOM     60  O   LIG    1        5.482   0.795   0.409  0.00  0.00    -0.396 OA
ATOM     61  H   LIG    1        5.826   1.554   0.837  0.00  0.00    +0.329 HD
ENDBRANCH  58  60
ENDBRANCH  36  58
ENDBRANCH  32  38
ENDBRANCH   1  32
TORSDOF 17
