REMARK  Name = DB17128
REMARK                            x       y       z     vdW  Elec       q    Type
REMARK                         _______ _______ _______ _____ _____    ______ ____
ROOT
ATOM      1  N   LIG    1        1.331  -0.110  -0.002  0.00  0.00    -0.279 NA
ATOM      2  H   LIG    1        1.815   0.777  -0.000  0.00  0.00    +0.125 HD
ENDROOT
BRANCH   1   3
ATOM      3  C   LIG    1       -0.005  -0.054  -0.000  0.00  0.00    +0.167 C 
BRANCH   3   4
ATOM      4  N   LIG    1       -0.787  -1.130   0.001  0.00  0.00    -0.297 NA
ATOM      5  H   LIG    1       -0.375  -2.051   0.002  0.00  0.00    +0.121 HD
ATOM      6  H   LIG    1       -1.792  -1.024   0.002  0.00  0.00    +0.121 HD
ENDBRANCH   3   4
BRANCH   3   7
ATOM      7  N   LIG    1       -0.583   1.138  -0.001  0.00  0.00    -0.297 NA
ATOM      8  H   LIG    1       -1.590   1.210  -0.001  0.00  0.00    +0.121 HD
ATOM      9  H   LIG    1       -0.015   1.973   0.007  0.00  0.00    +0.121 HD
ENDBRANCH   3   7
ENDBRANCH   1   3
BRANCH   1  10
ATOM     10  C   LIG    1        2.179  -1.312  -0.002  0.00  0.00    +0.119 C 
BRANCH  10  11
ATOM     11  C   LIG    1        3.668  -1.000  -0.004  0.00  0.00    -0.031 A 
ATOM     12  C   LIG    1        4.360  -0.863  -1.213  0.00  0.00    +0.005 A 
ATOM     13  C   LIG    1        5.727  -0.583  -1.213  0.00  0.00    +0.003 A 
ATOM     14  C   LIG    1        6.411  -0.443  -0.005  0.00  0.00    +0.038 A 
ATOM     15  C   LIG    1        5.729  -0.583   1.203  0.00  0.00    +0.124 A 
ATOM     16  F   LIG    1        6.392  -0.448   2.374  0.00  0.00    -0.205 F 
ATOM     17  C   LIG    1        4.361  -0.862   1.205  0.00  0.00    +0.043 A 
ENDBRANCH  10  11
ENDBRANCH   1  10
TORSDOF 5
