REMARK  Name = DB17151
REMARK                            x       y       z     vdW  Elec       q    Type
REMARK                         _______ _______ _______ _____ _____    ______ ____
ROOT
ATOM      1  C   LIG    1       -2.587   0.031   0.097  0.00  0.00    +0.191 C 
ATOM      2  N   LIG    1       -1.922   1.160  -0.167  0.00  0.00    -0.264 NA
ATOM      3  H   LIG    1       -2.450   1.880  -0.638  0.00  0.00    +0.127 HD
ATOM      4  C   LIG    1       -0.453   1.205  -0.317  0.00  0.00    +0.199 C 
ATOM      5  N   LIG    1        0.201  -0.123  -0.061  0.00  0.00    -0.244 N 
ATOM      6  C   LIG    1       -0.469  -1.315   0.101  0.00  0.00    +0.308 C 
ATOM      7  O   LIG    1       -0.062  -2.473   0.197  0.00  0.00    -0.252 OA
ATOM      8  N   LIG    1       -1.928  -1.129   0.196  0.00  0.00    -0.265 N 
ATOM      9  H   LIG    1       -2.473  -1.964   0.350  0.00  0.00    +0.153 HD
ENDROOT
BRANCH   5  10
ATOM     10  C1* LIG    1        1.650  -0.201  -0.176  0.00  0.00    +0.242 C 
ATOM     11  C2* LIG    1        2.238  -0.272  -1.581  0.00  0.00    +0.193 C 
ATOM     12  C3* LIG    1        3.694   0.056  -1.251  0.00  0.00    +0.178 C 
ATOM     13  C4* LIG    1        3.575   1.109  -0.131  0.00  0.00    +0.177 C 
ATOM     14  O4* LIG    1        2.261   0.913   0.399  0.00  0.00    -0.348 OA
BRANCH  11  15
ATOM     15  O2* LIG    1        1.962  -1.511  -2.209  0.00  0.00    -0.385 OA
ATOM     16  H2* LIG    1        2.311  -2.218  -1.661  0.00  0.00    +0.210 HD
ENDBRANCH  11  15
BRANCH  12  17
ATOM     17  O3* LIG    1        4.456  -1.071  -0.847  0.00  0.00    -0.386 OA
ATOM     18  H3* LIG    1        4.422  -1.729  -1.546  0.00  0.00    +0.210 HD
ENDBRANCH  12  17
BRANCH  13  19
ATOM     19  C5* LIG    1        3.679   2.564  -0.633  0.00  0.00    +0.190 C 
BRANCH  19  20
ATOM     20  O5* LIG    1        3.567   3.479   0.438  0.00  0.00    -0.392 OA
ATOM     21  H5* LIG    1        3.664   4.370   0.093  0.00  0.00    +0.210 HD
ENDBRANCH  19  20
ENDBRANCH  13  19
ENDBRANCH   5  10
BRANCH   1  22
ATOM     22  N   LIG    1       -3.902   0.061   0.263  0.00  0.00    -0.294 NA
ATOM     23  H   LIG    1       -4.405  -0.791   0.464  0.00  0.00    +0.122 HD
ATOM     24  H   LIG    1       -4.399   0.938   0.196  0.00  0.00    +0.122 HD
ENDBRANCH   1  22
TORSDOF 6
