REMARK  Name = DB17342
REMARK                            x       y       z     vdW  Elec       q    Type
REMARK                         _______ _______ _______ _____ _____    ______ ____
ROOT
ATOM      1  C   LIG    1       -0.168   0.037   0.029  0.00  0.00    -0.000 C 
ENDROOT
BRANCH   1   2
ATOM      2  C   LIG    1       -0.677   1.490   0.004  0.00  0.00    -0.000 C 
BRANCH   2   3
ATOM      3  C   LIG    1       -2.211   1.589  -0.070  0.00  0.00    -0.000 C 
BRANCH   3   4
ATOM      4  C   LIG    1       -2.717   3.042  -0.074  0.00  0.00    -0.000 C 
BRANCH   4   5
ATOM      5  C   LIG    1       -4.253   3.144  -0.110  0.00  0.00    -0.000 C 
BRANCH   5   6
ATOM      6  C   LIG    1       -4.756   4.598  -0.094  0.00  0.00    -0.000 C 
BRANCH   6   7
ATOM      7  C   LIG    1       -6.291   4.705  -0.122  0.00  0.00    -0.000 C 
BRANCH   7   9
ATOM      8  C   LIG    1       -8.319   6.272  -0.149  0.00  0.00    +0.004 C 
ATOM      9  C   LIG    1       -6.788   6.160  -0.118  0.00  0.00    -0.003 C 
ENDBRANCH   7   9
ENDBRANCH   6   7
ENDBRANCH   5   6
ENDBRANCH   4   5
ENDBRANCH   3   4
ENDBRANCH   2   3
ENDBRANCH   1   2
BRANCH   1  10
ATOM     10  C   LIG    1        1.366  -0.057   0.134  0.00  0.00    -0.000 C 
BRANCH  10  11
ATOM     11  C   LIG    1        1.922  -1.494   0.088  0.00  0.00    -0.000 C 
BRANCH  11  12
ATOM     12  C   LIG    1        1.547  -2.361   1.306  0.00  0.00    -0.002 C 
BRANCH  12  13
ATOM     13  C   LIG    1        2.182  -3.761   1.262  0.00  0.00    -0.018 C 
BRANCH  13  14
ATOM     14  C   LIG    1        1.797  -4.612   2.494  0.00  0.00    -0.076 C 
BRANCH  14  15
ATOM     15  N   LIG    1        2.409  -6.044   2.501  0.00  0.00    +0.374 N 
ATOM     16  C   LIG    1        3.957  -6.003   2.510  0.00  0.00    -0.093 C 
ATOM     17  C   LIG    1        1.925  -6.877   1.289  0.00  0.00    -0.093 C 
ATOM     18  C   LIG    1        1.939  -6.756   3.793  0.00  0.00    -0.093 C 
ENDBRANCH  14  15
ENDBRANCH  13  14
ENDBRANCH  12  13
ENDBRANCH  11  12
ENDBRANCH  10  11
ENDBRANCH   1  10
TORSDOF 13
