REMARK  Name = DB17893
REMARK                            x       y       z     vdW  Elec       q    Type
REMARK                         _______ _______ _______ _____ _____    ______ ____
ROOT
ATOM      1  C   LIG    1       -0.096   0.049   0.118  0.00  0.00    +0.182 C 
ENDROOT
BRANCH   1   2
ATOM      2  O   LIG    1       -0.454  -0.827   1.193  0.00  0.00    -0.376 OA
ATOM      3  H   LIG    1       -0.027  -1.673   1.050  0.00  0.00    +0.211 HD
ENDBRANCH   1   2
BRANCH   1   4
ATOM      4  C   LIG    1       -0.722   1.490   0.285  0.00  0.00    +0.338 C 
ATOM      5  O   LIG    1       -0.482   2.333  -0.613  0.00  0.00    -0.248 OA
BRANCH   4   6
ATOM      6  O   LIG    1       -1.427   1.758   1.289  0.00  0.00    -0.479 OA
ATOM      7  H   LIG    1       -1.797   2.613   1.386  0.00  0.00    +0.295 HD
ENDBRANCH   4   6
ENDBRANCH   1   4
BRANCH   1   8
ATOM      8  C   LIG    1       -0.577  -0.623  -1.230  0.00  0.00    +0.167 C 
BRANCH   8   9
ATOM      9  C   LIG    1       -2.096  -0.865  -1.473  0.00  0.00    +0.308 C 
ATOM     10  O   LIG    1       -2.438  -1.056  -2.662  0.00  0.00    -0.251 OA
BRANCH   9  11
ATOM     11  O   LIG    1       -2.896  -0.910  -0.510  0.00  0.00    -0.481 OA
ATOM     12  H   LIG    1       -3.808  -1.056  -0.665  0.00  0.00    +0.295 HD
ENDBRANCH   9  11
ENDBRANCH   8   9
ENDBRANCH   1   8
BRANCH   1  13
ATOM     13  C   LIG    1        1.483   0.129   0.064  0.00  0.00    +0.167 C 
BRANCH  13  14
ATOM     14  C   LIG    1        2.260   0.745   1.264  0.00  0.00    +0.308 C 
ATOM     15  O   LIG    1        1.784   0.685   2.421  0.00  0.00    -0.251 OA
BRANCH  14  16
ATOM     16  O   LIG    1        3.384   1.233   1.004  0.00  0.00    -0.481 OA
ATOM     17  H   LIG    1        3.897   1.618   1.688  0.00  0.00    +0.295 HD
ENDBRANCH  14  16
ENDBRANCH  13  14
ENDBRANCH   1  13
TORSDOF 9
