REMARK  Name = DB17136
REMARK                            x       y       z     vdW  Elec       q    Type
REMARK                         _______ _______ _______ _____ _____    ______ ____
ROOT
ATOM      1  C   LIG    1        0.146  -0.532   0.022  0.00  0.00    +0.177 C 
ENDROOT
BRANCH   1  14
ATOM      2 CL   LIG    1       -1.383   3.541  -0.018  0.00  0.00    -0.077 Cl
ATOM      3  C   LIG    1       -2.513   2.149  -0.008  0.00  0.00    +0.111 C 
ATOM      4  C   LIG    1       -3.862   2.350  -0.011  0.00  0.00    +0.145 C 
ATOM      5  C   LIG    1       -4.845   1.214  -0.004  0.00  0.00    +0.029 A 
ATOM      6  C   LIG    1       -6.249   1.380  -0.005  0.00  0.00    +0.012 A 
ATOM      7  C   LIG    1       -7.110   0.287  -0.002  0.00  0.00    +0.001 A 
ATOM      8  C   LIG    1       -6.591  -1.000   0.005  0.00  0.00    +0.001 A 
ATOM      9  C   LIG    1       -5.213  -1.190   0.008  0.00  0.00    +0.012 A 
ATOM     10  C   LIG    1       -4.324  -0.100   0.003  0.00  0.00    +0.035 A 
ATOM     11  C   LIG    1       -2.836  -0.364   0.004  0.00  0.00    +0.213 C 
ATOM     12  O   LIG    1       -2.434  -1.531   0.007  0.00  0.00    -0.285 OA
ATOM     13  C   LIG    1       -1.898   0.821   0.003  0.00  0.00    +0.128 C 
ATOM     14  N   LIG    1       -0.610   0.708   0.010  0.00  0.00    -0.274 NA
BRANCH   4  15
ATOM     15  O   LIG    1       -4.362   3.545  -0.022  0.00  0.00    -0.505 OA
ATOM     16  H   LIG    1       -3.794   4.290  -0.027  0.00  0.00    +0.292 HD
ENDBRANCH   4  15
ENDBRANCH   1  14
BRANCH   1  17
ATOM     17  C   LIG    1        1.636  -0.224   0.020  0.00  0.00    -0.026 A 
ATOM     18  C   LIG    1        2.317  -0.076  -1.190  0.00  0.00    +0.006 A 
ATOM     19  C   LIG    1        3.683   0.190  -1.193  0.00  0.00    +0.013 A 
ATOM     20  C   LIG    1        4.394   0.304   0.014  0.00  0.00    +0.037 A 
ATOM     21  C   LIG    1        3.696   0.154   1.222  0.00  0.00    +0.013 A 
ATOM     22  C   LIG    1        2.329  -0.110   1.225  0.00  0.00    +0.006 A 
BRANCH  20  23
ATOM     23  C   LIG    1        5.884   0.589   0.039  0.00  0.00    +0.248 C 
ATOM     24  N   LIG    1        6.528   0.465  -1.145  0.00  0.00    -0.280 N 
ATOM     25  H   LIG    1        5.948   0.261  -1.945  0.00  0.00    +0.155 HD
ATOM     26  O   LIG    1        6.434   0.907   1.096  0.00  0.00    -0.270 OA
BRANCH  24  27
ATOM     27  C   LIG    1        7.897   0.610  -1.436  0.00  0.00    +0.052 A 
ATOM     28  C   LIG    1        8.252   0.714  -2.785  0.00  0.00    +0.134 A 
ATOM     29  N   LIG    1        9.534   0.849  -3.213  0.00  0.00    -0.261 NA
ATOM     30  C   LIG    1       10.514   0.873  -2.275  0.00  0.00    +0.111 A 
ATOM     31  C   LIG    1       10.257   0.765  -0.908  0.00  0.00    +0.021 A 
ATOM     32  C   LIG    1        8.934   0.630  -0.484  0.00  0.00    +0.026 A 
ENDBRANCH  24  27
ENDBRANCH  20  23
ENDBRANCH   1  17
TORSDOF 5
