REMARK  Name = DB17992
REMARK                            x       y       z     vdW  Elec       q    Type
REMARK                         _______ _______ _______ _____ _____    ______ ____
ROOT
ATOM      1  C   LIG    1       -0.409  -2.478   0.276  0.00  0.00    +0.045 C 
ATOM      2  C   LIG    1       -0.814  -1.024   0.118  0.00  0.00    -0.031 A 
ATOM      3  C   LIG    1        0.055   0.073  -0.041  0.00  0.00    +0.077 A 
ATOM      4  S   LIG    1       -0.837   1.574  -0.173  0.00  0.00    -0.082 S 
ATOM      5  C   LIG    1       -2.361   0.760   0.004  0.00  0.00    +0.038 A 
ATOM      6  C   LIG    1       -2.157  -0.607   0.150  0.00  0.00    +0.021 A 
ENDROOT
BRANCH   5   7
ATOM      7  C   LIG    1       -3.634   1.484  -0.012  0.00  0.00    +0.098 C 
ATOM      8  C   LIG    1       -4.958   0.811   0.148  0.00  0.00    +0.125 C 
ATOM      9  C   LIG    1       -5.953   1.951  -0.137  0.00  0.00    +0.263 C 
ATOM     10  O   LIG    1       -5.107   3.108  -0.112  0.00  0.00    -0.373 OA
ATOM     11  N   LIG    1       -3.740   2.740  -0.097  0.00  0.00    -0.087 NA
BRANCH   9  12
ATOM     12  C   LIG    1       -7.082   2.039   0.905  0.00  0.00    +0.010 A 
ATOM     13  C   LIG    1       -7.399   3.254   1.525  0.00  0.00    +0.029 A 
ATOM     14  C   LIG    1       -8.430   3.332   2.461  0.00  0.00    +0.061 A 
ATOM     15 CL   LIG    1       -8.771   4.864   3.191  0.00  0.00    -0.082 Cl
ATOM     16  C   LIG    1       -9.166   2.186   2.792  0.00  0.00    +0.078 A 
ATOM     17 CL   LIG    1      -10.448   2.276   3.957  0.00  0.00    -0.081 Cl
ATOM     18  C   LIG    1       -8.860   0.967   2.172  0.00  0.00    +0.061 A 
ATOM     19 CL   LIG    1       -9.738  -0.478   2.538  0.00  0.00    -0.082 Cl
ATOM     20  C   LIG    1       -7.827   0.901   1.237  0.00  0.00    +0.029 A 
ENDBRANCH   9  12
BRANCH   9  21
ATOM     21  C   LIG    1       -6.538   1.901  -1.583  0.00  0.00    +0.437 C 
ATOM     22  F   LIG    1       -5.584   1.900  -2.517  0.00  0.00    -0.166 F 
ATOM     23  F   LIG    1       -7.329   2.947  -1.831  0.00  0.00    -0.166 F 
ATOM     24  F   LIG    1       -7.265   0.800  -1.783  0.00  0.00    -0.166 F 
ENDBRANCH   9  21
ENDBRANCH   5   7
BRANCH   3  25
ATOM     25  C   LIG    1        1.510   0.053  -0.132  0.00  0.00    +0.251 C 
ATOM     26  N   LIG    1        2.120   1.257  -0.150  0.00  0.00    -0.302 N 
ATOM     27  H   LIG    1        1.551   2.088  -0.088  0.00  0.00    +0.150 HD
ATOM     28  O   LIG    1        2.131  -1.008  -0.202  0.00  0.00    -0.270 OA
BRANCH  26  29
ATOM     29  C   LIG    1        3.569   1.472  -0.245  0.00  0.00    +0.200 C 
BRANCH  29  30
ATOM     30  C   LIG    1        4.329   1.288   1.087  0.00  0.00    +0.230 C 
ATOM     31  N   LIG    1        3.641   1.029   2.216  0.00  0.00    -0.305 N 
ATOM     32  H   LIG    1        2.637   0.937   2.159  0.00  0.00    +0.149 HD
ATOM     33  O   LIG    1        5.555   1.405   1.082  0.00  0.00    -0.274 OA
BRANCH  31  34
ATOM     34  C   LIG    1        4.238   0.852   3.542  0.00  0.00    +0.217 C 
BRANCH  34  35
ATOM     35  C   LIG    1        4.476   2.169   4.309  0.00  0.00    +0.405 C 
ATOM     36  F   LIG    1        3.338   2.845   4.476  0.00  0.00    -0.169 F 
ATOM     37  F   LIG    1        5.327   2.973   3.672  0.00  0.00    -0.169 F 
ATOM     38  F   LIG    1        4.982   1.926   5.518  0.00  0.00    -0.169 F 
ENDBRANCH  34  35
ENDBRANCH  31  34
ENDBRANCH  29  30
ENDBRANCH  26  29
ENDBRANCH   3  25
TORSDOF 8
