REMARK  Name = DB17143
REMARK                            x       y       z     vdW  Elec       q    Type
REMARK                         _______ _______ _______ _____ _____    ______ ____
ROOT
ATOM      1  C   LIG    1        2.031   2.499   0.005  0.00  0.00    +0.142 A 
ATOM      2  N   LIG    1        2.799   3.434   0.672  0.00  0.00    -0.337 N 
ATOM      3  H   LIG    1        3.634   3.212   1.194  0.00  0.00    +0.167 HD
ATOM      4  C   LIG    1        2.191   4.649   0.462  0.00  0.00    +0.076 A 
ATOM      5  C   LIG    1        2.503   5.964   0.877  0.00  0.00    +0.028 A 
ATOM      6  C   LIG    1        1.644   7.031   0.470  0.00  0.00    +0.099 A 
ATOM      7  C   LIG    1        0.498   6.754  -0.339  0.00  0.00    +0.099 A 
ATOM      8  N   LIG    1       -0.316   7.787  -0.724  0.00  0.00    -0.253 NA
ATOM      9  C   LIG    1       -1.401   7.515  -1.490  0.00  0.00    +0.111 A 
ATOM     10  C   LIG    1       -1.742   6.235  -1.914  0.00  0.00    +0.020 A 
ATOM     11  C   LIG    1       -0.935   5.165  -1.539  0.00  0.00    +0.014 A 
ATOM     12  C   LIG    1        0.210   5.409  -0.738  0.00  0.00    +0.030 A 
ATOM     13  N   LIG    1        1.909   8.321   0.848  0.00  0.00    -0.253 NA
ATOM     14  C   LIG    1        2.999   8.566   1.616  0.00  0.00    +0.111 A 
ATOM     15  C   LIG    1        3.876   7.575   2.048  0.00  0.00    +0.020 A 
ATOM     16  C   LIG    1        3.634   6.255   1.679  0.00  0.00    +0.013 A 
ATOM     17  C   LIG    1        1.076   4.364  -0.324  0.00  0.00    +0.099 A 
ATOM     18  N   LIG    1        0.981   3.024  -0.596  0.00  0.00    -0.227 NA
ENDROOT
BRANCH   1  30
ATOM     19  C   LIG    1       -0.045  -0.043  -0.042  0.00  0.00    +0.064 C 
ATOM     20  C   LIG    1        1.467   0.012  -0.026  0.00  0.00    +0.025 A 
ATOM     21  N   LIG    1        2.184  -1.160  -0.035  0.00  0.00    -0.358 N 
ATOM     22  H   LIG    1        1.732  -2.062  -0.054  0.00  0.00    +0.166 HD
ATOM     23  C   LIG    1        3.537  -0.913  -0.009  0.00  0.00    +0.048 A 
ATOM     24  C   LIG    1        4.630  -1.787  -0.004  0.00  0.00    +0.029 A 
ATOM     25  C   LIG    1        5.900  -1.211   0.020  0.00  0.00    +0.040 A 
ATOM     26  C   LIG    1        6.081   0.170   0.035  0.00  0.00    +0.124 A 
ATOM     27  C   LIG    1        4.990   1.036   0.029  0.00  0.00    +0.049 A 
ATOM     28  F   LIG    1        7.334   0.677   0.054  0.00  0.00    -0.205 F 
ATOM     29  C   LIG    1        3.688   0.504   0.011  0.00  0.00    +0.013 A 
ATOM     30  C   LIG    1        2.364   1.077  -0.002  0.00  0.00    +0.045 A 
ENDBRANCH   1  30
TORSDOF 1
