REMARK  Name = DB17255
REMARK                            x       y       z     vdW  Elec       q    Type
REMARK                         _______ _______ _______ _____ _____    ______ ____
ROOT
ATOM      1  C   LIG    1       -0.594   2.006  -2.067  0.00  0.00    +0.075 C 
ATOM      2  C   LIG    1       -1.400   1.059  -2.977  0.00  0.00    +0.159 C 
ATOM      3  C   LIG    1       -1.020  -0.410  -2.697  0.00  0.00    -0.011 A 
ATOM      4  C   LIG    1       -1.287  -1.386  -3.675  0.00  0.00    +0.056 A 
ATOM      5  C   LIG    1       -1.015  -2.716  -3.394  0.00  0.00    +0.167 A 
ATOM      6  C   LIG    1       -0.489  -3.098  -2.201  0.00  0.00    +0.167 A 
ATOM      7  C   LIG    1       -0.193  -2.176  -1.210  0.00  0.00    +0.054 A 
ATOM      8  O   LIG    1       -0.291  -4.442  -2.203  0.00  0.00    -0.453 OA
ATOM      9  C   LIG    1       -0.906  -4.913  -3.372  0.00  0.00    +0.466 C 
ATOM     10  O   LIG    1       -1.169  -3.805  -4.191  0.00  0.00    -0.453 OA
ATOM     11  C   LIG    1       -0.453  -0.812  -1.443  0.00  0.00    -0.030 A 
ATOM     12  C   LIG    1       -0.043   0.218  -0.366  0.00  0.00    +0.064 C 
ATOM     13  C   LIG    1       -0.739   1.579  -0.625  0.00  0.00    +0.118 C 
ATOM     14  C   LIG    1       -0.312   2.864   0.084  0.00  0.00    +0.312 C 
ATOM     15  O   LIG    1        0.139   3.003   1.219  0.00  0.00    -0.250 OA
ATOM     16  O   LIG    1       -0.472   3.910  -0.762  0.00  0.00    -0.464 OA
ATOM     17  C   LIG    1       -0.951   3.490  -2.040  0.00  0.00    +0.239 C 
ENDROOT
BRANCH  12  18
ATOM     18  C   LIG    1        1.484   0.305  -0.176  0.00  0.00    -0.032 A 
ATOM     19  C   LIG    1        2.015   0.428   1.110  0.00  0.00    +0.054 A 
ATOM     20  C   LIG    1        3.400   0.503   1.322  0.00  0.00    +0.166 A 
ATOM     21  C   LIG    1        4.260   0.441   0.215  0.00  0.00    +0.218 A 
ATOM     22  C   LIG    1        3.750   0.294  -1.085  0.00  0.00    +0.166 A 
ATOM     23  C   LIG    1        2.360   0.234  -1.265  0.00  0.00    +0.054 A 
BRANCH  20  24
ATOM     24  O   LIG    1        3.980   0.640   2.571  0.00  0.00    -0.491 OA
ATOM     25  C   LIG    1        3.149   0.789   3.717  0.00  0.00    +0.277 C 
ENDBRANCH  20  24
BRANCH  22  26
ATOM     26  O   LIG    1        4.663   0.218  -2.122  0.00  0.00    -0.491 OA
ATOM     27  C   LIG    1        4.195   0.084  -3.459  0.00  0.00    +0.277 C 
ENDBRANCH  22  26
BRANCH  21  28
ATOM     28  O   LIG    1        5.625   0.489   0.414  0.00  0.00    -0.387 OA
BRANCH  28  29
ATOM     29  C   LIG    1        6.263   1.687   0.367  0.00  0.00    +0.516 C 
ATOM     30  O   LIG    1        5.755   2.785   0.113  0.00  0.00    -0.202 OA
BRANCH  29  31
ATOM     31  O   LIG    1        7.563   1.462   0.657  0.00  0.00    -0.431 OA
BRANCH  31  32
ATOM     32  C   LIG    1        8.511   2.526   0.716  0.00  0.00    +0.269 C 
BRANCH  32  33
ATOM     33  C   LIG    1        8.404   3.344   2.021  0.00  0.00    +0.185 C 
ATOM     34  O   LIG    1        8.725   2.499   3.106  0.00  0.00    -0.340 OA
ATOM     35  C   LIG    1        9.668   3.091   3.936  0.00  0.00    +0.165 C 
ATOM     36  C   LIG    1        8.971   3.548   5.213  0.00  0.00    +0.074 C 
ATOM     37  C   LIG    1       10.807   2.109   4.166  0.00  0.00    +0.074 C 
ATOM     38  O   LIG    1       10.162   4.211   3.279  0.00  0.00    -0.346 OA
ATOM     39  C   LIG    1        9.409   4.492   2.120  0.00  0.00    +0.198 C 
ENDBRANCH  32  33
ENDBRANCH  31  32
ENDBRANCH  29  31
ENDBRANCH  28  29
ENDBRANCH  21  28
ENDBRANCH  12  18
BRANCH   2  40
ATOM     40  O   LIG    1       -2.775   1.327  -2.678  0.00  0.00    -0.340 OA
BRANCH  40  41
ATOM     41  C   LIG    1       -3.743   0.907  -3.593  0.00  0.00    +0.282 C 
ATOM     42  C   LIG    1       -5.120   1.223  -2.968  0.00  0.00    +0.201 C 
ATOM     43  C   LIG    1       -6.264   0.925  -3.975  0.00  0.00    +0.179 C 
ATOM     44  C   LIG    1       -5.960   1.575  -5.335  0.00  0.00    +0.183 C 
ATOM     45  O   LIG    1       -6.861   1.112  -6.347  0.00  0.00    -0.343 OA
ATOM     46  C   LIG    1       -6.596   1.757  -7.571  0.00  0.00    +0.248 C 
ATOM     47  C   LIG    1       -7.617   1.270  -8.583  0.00  0.00    +0.070 C 
ATOM     48  O   LIG    1       -5.316   1.418  -8.058  0.00  0.00    -0.349 OA
ATOM     49  C   LIG    1       -4.291   1.836  -7.150  0.00  0.00    +0.197 C 
ATOM     50  C   LIG    1       -4.547   1.181  -5.785  0.00  0.00    +0.178 C 
ATOM     51  O   LIG    1       -3.592   1.601  -4.810  0.00  0.00    -0.340 OA
BRANCH  42  52
ATOM     52  O   LIG    1       -5.303   0.512  -1.755  0.00  0.00    -0.384 OA
ATOM     53  H   LIG    1       -5.628  -0.367  -1.961  0.00  0.00    +0.210 HD
ENDBRANCH  42  52
BRANCH  43  54
ATOM     54  O   LIG    1       -7.516   1.367  -3.483  0.00  0.00    -0.386 OA
ATOM     55  H   LIG    1       -8.193   1.136  -4.124  0.00  0.00    +0.210 HD
ENDBRANCH  43  54
ENDBRANCH  40  41
ENDBRANCH   2  40
TORSDOF 12
