REMARK  Name = DB17742
REMARK                            x       y       z     vdW  Elec       q    Type
REMARK                         _______ _______ _______ _____ _____    ______ ____
ROOT
ATOM      1  C   LIG    1       -1.570  -2.768   0.935  0.00  0.00    -0.004 C 
ATOM      2  C   LIG    1       -1.618  -3.965  -0.019  0.00  0.00    +0.004 C 
ATOM      3  C   LIG    1       -3.053  -4.534  -0.051  0.00  0.00    +0.005 C 
ATOM      4  C   LIG    1       -4.158  -3.455  -0.337  0.00  0.00    +0.006 C 
ATOM      5  C   LIG    1       -5.629  -4.027  -0.547  0.00  0.00    +0.020 C 
ATOM      6  C   LIG    1       -6.243  -4.615   0.759  0.00  0.00    +0.016 C 
ATOM      7  C   LIG    1       -6.543  -2.840  -1.046  0.00  0.00    +0.123 C 
ATOM      8  C   LIG    1       -6.454  -1.573  -0.159  0.00  0.00    +0.032 C 
ATOM      9  C   LIG    1       -5.003  -1.072   0.014  0.00  0.00    +0.010 C 
ATOM     10  C   LIG    1       -4.002  -2.141   0.567  0.00  0.00    -0.023 C 
ATOM     11  C   LIG    1       -4.413  -2.435   2.050  0.00  0.00    +0.012 C 
ATOM     12  C   LIG    1       -2.486  -1.622   0.421  0.00  0.00    -0.020 C 
ATOM     13  C   LIG    1       -2.124  -1.083  -1.029  0.00  0.00    +0.010 C 
ATOM     14  C   LIG    1       -0.647  -0.695  -1.294  0.00  0.00    +0.038 C 
ATOM     15  C   LIG    1        0.096  -0.004  -0.114  0.00  0.00    +0.092 C 
ATOM     16  C   LIG    1       -0.465  -0.589   1.226  0.00  0.00    +0.024 C 
ATOM     17  C   LIG    1       -2.010  -0.486   1.354  0.00  0.00    +0.014 C 
ATOM     18  C   LIG    1       -0.216  -2.119   1.285  0.00  0.00    +0.010 C 
ENDROOT
BRANCH   7  19
ATOM     19  O   LIG    1       -6.273  -2.465  -2.390  0.00  0.00    -0.391 OA
ATOM     20  H   LIG    1       -6.950  -1.848  -2.676  0.00  0.00    +0.210 HD
ENDBRANCH   7  19
BRANCH  15  21
ATOM     21  O   LIG    1       -0.328   1.353  -0.073  0.00  0.00    -0.386 OA
ATOM     22  H   LIG    1       -0.270   1.716  -0.959  0.00  0.00    +0.210 HD
ENDBRANCH  15  21
BRANCH   5  23
ATOM     23  C   LIG    1       -5.581  -5.145  -1.648  0.00  0.00    +0.165 C 
BRANCH  23  24
ATOM     24  O   LIG    1       -6.860  -5.568  -2.086  0.00  0.00    -0.394 OA
ATOM     25  H   LIG    1       -6.744  -6.247  -2.754  0.00  0.00    +0.209 HD
ENDBRANCH  23  24
ENDBRANCH   5  23
BRANCH  15  26
ATOM     26  C   LIG    1        1.631  -0.030  -0.350  0.00  0.00    +0.190 C 
BRANCH  26  27
ATOM     27  O   LIG    1        2.360   0.392   0.787  0.00  0.00    -0.392 OA
ATOM     28  H   LIG    1        3.297   0.353   0.581  0.00  0.00    +0.210 HD
ENDBRANCH  26  27
ENDBRANCH  15  26
TORSDOF 6
