REMARK  Name = DB17984
REMARK                            x       y       z     vdW  Elec       q    Type
REMARK                         _______ _______ _______ _____ _____    ______ ____
ROOT
ATOM      1  CA  LIG    1        0.691   0.412  -0.205  0.00  0.00    +0.163 C 
ENDROOT
BRANCH   1   4
ATOM      2  N   LIG    1       -0.877   1.668   1.186  0.00  0.00    -0.301 N 
ATOM      3  H   LIG    1       -1.206   0.746   1.432  0.00  0.00    +0.150 HD
ATOM      4  C   LIG    1        0.184   1.758   0.360  0.00  0.00    +0.234 C 
ATOM      5  O   LIG    1        0.691   2.817  -0.009  0.00  0.00    -0.274 OA
BRANCH   2   6
ATOM      6  CA  LIG    1       -1.681   2.770   1.743  0.00  0.00    +0.182 C 
BRANCH   6   7
ATOM      7  C   LIG    1       -0.848   3.612   2.786  0.00  0.00    +0.325 C 
ATOM      8  OXT LIG    1       -0.514   4.768   2.436  0.00  0.00    -0.249 OA
BRANCH   7   9
ATOM      9  O   LIG    1       -0.595   3.011   3.857  0.00  0.00    -0.479 OA
ATOM     10  H   LIG    1       -0.105   3.439   4.531  0.00  0.00    +0.295 HD
ENDBRANCH   7   9
ENDBRANCH   6   7
BRANCH   6  11
ATOM     11  C   LIG    1       -2.452   3.555   0.638  0.00  0.00    +0.034 C 
BRANCH  11  12
ATOM     12  C   LIG    1       -3.605   4.438   1.155  0.00  0.00    +0.002 C 
BRANCH  12  14
ATOM     13  C   LIG    1       -5.584   5.936   0.513  0.00  0.00    +0.004 C 
ATOM     14  C   LIG    1       -4.425   5.065   0.013  0.00  0.00    -0.003 C 
ENDBRANCH  12  14
ENDBRANCH  11  12
ENDBRANCH   6  11
ENDBRANCH   2   6
ENDBRANCH   1   4
BRANCH   1  15
ATOM     15  N   LIG    1        2.143   0.244  -0.077  0.00  0.00    -0.302 N 
ATOM     16  H   LIG    1        2.424  -0.443   0.607  0.00  0.00    +0.150 HD
ATOM     17  C   LIG    1        3.114   0.862  -0.777  0.00  0.00    +0.234 C 
ATOM     18  O   LIG    1        2.920   1.722  -1.638  0.00  0.00    -0.274 OA
BRANCH  17  19
ATOM     19  CA  LIG    1        4.561   0.421  -0.458  0.00  0.00    +0.161 C 
BRANCH  19  20
ATOM     20  N   LIG    1        5.066  -0.380  -1.575  0.00  0.00    -0.288 N 
ATOM     21  H   LIG    1        5.712   0.093  -2.189  0.00  0.00    +0.151 HD
ATOM     22  C   LIG    1        4.688  -1.640  -1.874  0.00  0.00    +0.303 C 
ATOM     23  N   LIG    1        5.163  -2.086  -3.062  0.00  0.00    -0.280 N 
ATOM     24  C   LIG    1        4.486  -1.544  -4.283  0.00  0.00    +0.075 C 
ATOM     25  C   LIG    1        2.943  -1.386  -4.250  0.00  0.00    +0.028 C 
ATOM     26  C   LIG    1        4.935  -2.298  -5.554  0.00  0.00    +0.022 C 
ATOM     27  C   LIG    1        6.446  -2.490  -5.640  0.00  0.00    +0.004 C 
ATOM     28  C   LIG    1        6.941  -3.240  -4.407  0.00  0.00    +0.022 C 
ATOM     29  C   LIG    1        6.590  -2.536  -3.076  0.00  0.00    +0.075 C 
ATOM     30  C   LIG    1        7.100  -3.362  -1.868  0.00  0.00    +0.028 C 
ATOM     31  O   LIG    1        3.962  -2.329  -1.157  0.00  0.00    -0.253 OA
ENDBRANCH  19  20
BRANCH  19  32
ATOM     32  C   LIG    1        5.469   1.651  -0.158  0.00  0.00    +0.038 C 
BRANCH  32  33
ATOM     33  C   LIG    1        6.908   1.395   0.397  0.00  0.00    -0.036 C 
ATOM     34  C   LIG    1        7.824   0.714  -0.648  0.00  0.00    +0.010 C 
ATOM     35  C   LIG    1        7.532   2.765   0.755  0.00  0.00    +0.010 C 
ATOM     36  C   LIG    1        6.866   0.530   1.679  0.00  0.00    +0.010 C 
ENDBRANCH  32  33
ENDBRANCH  19  32
ENDBRANCH  17  19
ENDBRANCH   1  15
BRANCH   1  37
ATOM     37  C   LIG    1        0.158   0.120  -1.640  0.00  0.00    +0.069 C 
BRANCH  37  38
ATOM     38  C   LIG    1       -1.350   0.246  -1.777  0.00  0.00    -0.019 A 
ATOM     39  C   LIG    1       -2.347  -0.641  -1.261  0.00  0.00    +0.004 A 
ATOM     40  C   LIG    1       -2.277  -1.850  -0.549  0.00  0.00    +0.010 A 
ATOM     41  C   LIG    1       -3.455  -2.485  -0.168  0.00  0.00    +0.001 A 
ATOM     42  C   LIG    1       -4.694  -1.940  -0.480  0.00  0.00    +0.002 A 
ATOM     43  C   LIG    1       -4.815  -0.743  -1.183  0.00  0.00    +0.027 A 
ATOM     44  C   LIG    1       -3.632  -0.091  -1.576  0.00  0.00    +0.060 A 
ATOM     45  N   LIG    1       -3.425   1.104  -2.269  0.00  0.00    -0.253 N 
ATOM     46  C   LIG    1       -4.391   2.010  -2.761  0.00  0.00    +0.420 C 
ATOM     47  O   LIG    1       -5.606   1.835  -2.644  0.00  0.00    -0.223 OA
ATOM     48  C   LIG    1       -2.053   1.263  -2.382  0.00  0.00    +0.102 A 
BRANCH  46  49
ATOM     49  O   LIG    1       -3.810   3.083  -3.360  0.00  0.00    -0.451 OA
ATOM     50  C   LIG    1       -4.605   4.125  -3.904  0.00  0.00    +0.282 C 
ENDBRANCH  46  49
ENDBRANCH  37  38
ENDBRANCH   1  37
TORSDOF 15
