REMARK  Name = DB17193
REMARK                            x       y       z     vdW  Elec       q    Type
REMARK                         _______ _______ _______ _____ _____    ______ ____
ROOT
ATOM      1  O   LIG    1        3.599  -5.934   2.684  0.00  0.00    -0.462 OA
ENDROOT
BRANCH   1   2
ATOM      2  C   LIG    1        3.991  -5.418   1.502  0.00  0.00    +0.307 C 
ATOM      3  O   LIG    1        4.696  -5.987   0.664  0.00  0.00    -0.251 OA
BRANCH   2   4
ATOM      4  C   LIG    1        3.443  -4.001   1.293  0.00  0.00    +0.120 C 
BRANCH   4   5
ATOM      5  C   LIG    1        3.716  -3.401  -0.104  0.00  0.00    +0.011 C 
BRANCH   5   6
ATOM      6  C   LIG    1        3.226  -1.949  -0.266  0.00  0.00    +0.001 C 
BRANCH   6   7
ATOM      7  C   LIG    1        1.701  -1.774  -0.122  0.00  0.00    +0.000 C 
BRANCH   7   8
ATOM      8  C   LIG    1        1.234  -0.334  -0.403  0.00  0.00    +0.000 C 
BRANCH   8   9
ATOM      9  C   LIG    1       -0.278  -0.145  -0.191  0.00  0.00    +0.004 C 
BRANCH   9  10
ATOM     10  C   LIG    1       -0.750   1.292  -0.468  0.00  0.00    +0.027 C 
BRANCH  10  12
ATOM     11  C   LIG    1       -2.736   2.309   0.736  0.00  0.00    -0.031 C 
ATOM     12  C   LIG    1       -2.230   1.488  -0.201  0.00  0.00    -0.031 C 
BRANCH  11  13
ATOM     13  C   LIG    1       -4.215   2.501   1.014  0.00  0.00    +0.027 C 
BRANCH  13  14
ATOM     14  C   LIG    1       -4.619   2.065   2.432  0.00  0.00    +0.004 C 
BRANCH  14  15
ATOM     15  C   LIG    1       -6.123   2.249   2.714  0.00  0.00    +0.000 C 
BRANCH  15  16
ATOM     16  C   LIG    1       -6.536   1.947   4.168  0.00  0.00    +0.000 C 
BRANCH  16  17
ATOM     17  C   LIG    1       -6.369   0.473   4.587  0.00  0.00    -0.000 C 
BRANCH  17  18
ATOM     18  C   LIG    1       -6.845   0.202   6.025  0.00  0.00    -0.000 C 
BRANCH  18  20
ATOM     19  C   LIG    1       -7.160  -1.538   7.879  0.00  0.00    +0.004 C 
ATOM     20  C   LIG    1       -6.683  -1.269   6.445  0.00  0.00    -0.003 C 
ENDBRANCH  18  20
ENDBRANCH  17  18
ENDBRANCH  16  17
ENDBRANCH  15  16
ENDBRANCH  14  15
ENDBRANCH  13  14
ENDBRANCH  11  13
ENDBRANCH  10  12
ENDBRANCH   9  10
ENDBRANCH   8   9
ENDBRANCH   7   8
ENDBRANCH   6   7
ENDBRANCH   5   6
ENDBRANCH   4   5
ENDBRANCH   2   4
ENDBRANCH   1   2
BRANCH   1  21
ATOM     21  C   LIG    1        4.008  -7.237   3.079  0.00  0.00    +0.266 C 
BRANCH  21  22
ATOM     22  C   LIG    1        3.355  -7.597   4.425  0.00  0.00    +0.189 C 
ATOM     23  C   LIG    1        3.990  -6.941   5.663  0.00  0.00    +0.179 C 
ATOM     24  C   LIG    1        5.029  -7.959   6.128  0.00  0.00    +0.196 C 
ATOM     25  C   LIG    1        4.261  -9.242   5.826  0.00  0.00    +0.270 C 
ATOM     26  O   LIG    1        3.619  -8.987   4.612  0.00  0.00    -0.343 OA
BRANCH  25  27
ATOM     27  N   LIG    1        5.058 -10.447   5.708  0.00  0.00    -0.220 N 
ATOM     28  N   LIG    1        4.490 -11.614   5.382  0.00  0.00    -0.142 NA
ATOM     29  C   LIG    1        5.495 -12.476   5.383  0.00  0.00    +0.236 A 
ATOM     30  N   LIG    1        6.672 -11.935   5.702  0.00  0.00    -0.211 NA
ATOM     31  C   LIG    1        6.390 -10.677   5.907  0.00  0.00    +0.223 A 
BRANCH  29  32
ATOM     32  C   LIG    1        5.303 -13.877   5.059  0.00  0.00    +0.281 C 
ATOM     33  O   LIG    1        4.203 -14.333   4.746  0.00  0.00    -0.267 OA
ATOM     34  N   LIG    1        6.395 -14.650   5.122  0.00  0.00    -0.323 N 
ATOM     35  H   LIG    1        6.333 -15.634   4.906  0.00  0.00    +0.145 HD
ATOM     36  H   LIG    1        7.284 -14.252   5.388  0.00  0.00    +0.145 HD
ENDBRANCH  29  32
ENDBRANCH  25  27
BRANCH  23  37
ATOM     37  O   LIG    1        3.011  -6.626   6.641  0.00  0.00    -0.386 OA
ATOM     38  H   LIG    1        2.500  -7.417   6.828  0.00  0.00    +0.210 HD
ENDBRANCH  23  37
BRANCH  24  39
ATOM     39  O   LIG    1        5.423  -7.895   7.487  0.00  0.00    -0.385 OA
ATOM     40  H   LIG    1        4.636  -7.817   8.031  0.00  0.00    +0.210 HD
ENDBRANCH  24  39
ENDBRANCH  21  22
ENDBRANCH   1  21
TORSDOF 22
