REMARK  Name = DB17865
REMARK                            x       y       z     vdW  Elec       q    Type
REMARK                         _______ _______ _______ _____ _____    ______ ____
ROOT
ATOM      1  C   LIG    1       -4.690   0.120  -1.961  0.00  0.00    +0.152 C 
ATOM      2  O   LIG    1       -3.716   0.881  -1.252  0.00  0.00    -0.368 OA
ATOM      3  C   LIG    1       -2.327   0.610  -1.438  0.00  0.00    +0.151 C 
ATOM      4  C   LIG    1       -1.563   1.916  -1.121  0.00  0.00    +0.040 C 
ATOM      5  C   LIG    1       -0.041   1.692  -1.138  0.00  0.00    +0.017 C 
ATOM      6  C   LIG    1        0.494   1.339  -2.546  0.00  0.00    +0.010 C 
ATOM      7  C   LIG    1        0.257   0.622  -0.059  0.00  0.00    +0.122 C 
ATOM      8  O   LIG    1       -0.408  -0.581  -0.457  0.00  0.00    -0.368 OA
ATOM      9  C   LIG    1       -1.851  -0.603  -0.559  0.00  0.00    +0.096 C 
ATOM     10  C   LIG    1       -2.389  -0.521   0.896  0.00  0.00    +0.044 C 
ATOM     11  C   LIG    1       -2.124  -1.963  -1.265  0.00  0.00    +0.071 C 
ATOM     12  C   LIG    1       -3.435  -2.158  -2.072  0.00  0.00    +0.149 C 
ATOM     13  C   LIG    1       -4.708  -1.402  -1.625  0.00  0.00    +0.176 C 
ATOM     14  O   LIG    1       -5.837  -2.013  -2.269  0.00  0.00    -0.363 OA
ATOM     15  C   LIG    1       -7.170  -1.557  -1.978  0.00  0.00    +0.093 C 
ATOM     16  C   LIG    1       -7.472  -1.791  -0.473  0.00  0.00    +0.044 C 
ATOM     17  C   LIG    1       -8.076  -2.406  -2.910  0.00  0.00    +0.040 C 
ATOM     18  C   LIG    1       -9.617  -2.295  -2.779  0.00  0.00    +0.037 C 
ATOM     19  C   LIG    1      -10.251  -0.910  -2.516  0.00  0.00    +0.148 C 
ATOM     20  O   LIG    1      -11.600  -0.993  -2.978  0.00  0.00    -0.368 OA
ATOM     21  C   LIG    1      -12.602  -0.405  -2.145  0.00  0.00    +0.150 C 
ATOM     22  C   LIG    1      -12.744   1.130  -2.398  0.00  0.00    +0.089 C 
ATOM     23  C   LIG    1      -13.445   1.459  -3.739  0.00  0.00    +0.044 C 
ATOM     24  C   LIG    1      -11.397   1.897  -2.263  0.00  0.00    +0.039 C 
ATOM     25  C   LIG    1      -10.314   1.571  -3.320  0.00  0.00    +0.037 C 
ATOM     26  C   LIG    1       -9.480   0.284  -3.112  0.00  0.00    +0.148 C 
ATOM     27  O   LIG    1       -8.427   0.627  -2.214  0.00  0.00    -0.368 OA
ATOM     28  C   LIG    1       -7.184  -0.045  -2.393  0.00  0.00    +0.153 C 
ATOM     29  C   LIG    1       -6.067   0.750  -1.691  0.00  0.00    +0.068 C 
ENDROOT
BRANCH  12  30
ATOM     30  O   LIG    1       -3.189  -1.972  -3.457  0.00  0.00    -0.389 OA
ATOM     31  H   LIG    1       -3.625  -1.165  -3.739  0.00  0.00    +0.210 HD
ENDBRANCH  12  30
BRANCH  22  32
ATOM     32  O   LIG    1      -13.579   1.649  -1.375  0.00  0.00    -0.386 OA
ATOM     33  H   LIG    1      -13.687   2.592  -1.519  0.00  0.00    +0.210 HD
ENDBRANCH  22  32
BRANCH   7  34
ATOM     34  C   LIG    1        1.758   0.321   0.150  0.00  0.00    +0.036 C 
BRANCH  34  35
ATOM     35  C   LIG    1        2.573   1.510   0.694  0.00  0.00    +0.030 C 
BRANCH  35  36
ATOM     36  C   LIG    1        4.030   1.163   0.967  0.00  0.00    -0.023 C 
ATOM     37  C   LIG    1        4.598   0.809   2.149  0.00  0.00    -0.051 C 
ATOM     38  C   LIG    1        3.719   0.658   3.396  0.00  0.00    +0.044 C 
BRANCH  37  39
ATOM     39  C   LIG    1        6.053   0.537   2.220  0.00  0.00    -0.045 C 
ATOM     40  C   LIG    1        6.646   0.436   3.442  0.00  0.00    +0.046 C 
ATOM     41  C   LIG    1        6.851   0.349   0.920  0.00  0.00    +0.044 C 
BRANCH  40  42
ATOM     42  C   LIG    1        8.059   0.188   3.703  0.00  0.00    +0.251 C 
ATOM     43  O   LIG    1        8.495   0.043   4.843  0.00  0.00    -0.296 OA
ENDBRANCH  40  42
ENDBRANCH  37  39
ENDBRANCH  35  36
ENDBRANCH  34  35
ENDBRANCH   7  34
BRANCH  21  44
ATOM     44  C   LIG    1      -13.896  -1.227  -2.373  0.00  0.00    +0.038 C 
BRANCH  44  45
ATOM     45  C   LIG    1      -13.784  -2.685  -1.890  0.00  0.00    +0.030 C 
BRANCH  45  46
ATOM     46  C   LIG    1      -15.042  -3.499  -2.155  0.00  0.00    -0.027 C 
ATOM     47  C   LIG    1      -15.191  -4.535  -3.004  0.00  0.00    -0.005 C 
BRANCH  47  48
ATOM     48  C   LIG    1      -14.161  -5.085  -3.870  0.00  0.00    -0.008 C 
ATOM     49  C   LIG    1      -14.369  -6.147  -4.664  0.00  0.00    +0.008 C 
ENDBRANCH  47  48
ENDBRANCH  45  46
ENDBRANCH  44  45
ENDBRANCH  21  44
TORSDOF 11
