REMARK  Name = DB17624
REMARK                            x       y       z     vdW  Elec       q    Type
REMARK                         _______ _______ _______ _____ _____    ______ ____
ROOT
ATOM      1  N   LIG    1        1.440  -0.018  -0.031  0.00  0.00    -0.257 NA
ATOM      2  C   LIG    1        2.204   0.070  -1.132  0.00  0.00    +0.173 C 
ATOM      3  N   LIG    1        3.484   0.039  -0.773  0.00  0.00    -0.281 NA
ATOM      4  H   LIG    1        4.255   0.066  -1.425  0.00  0.00    +0.125 HD
ATOM      5  C   LIG    1        3.672   0.092   0.665  0.00  0.00    +0.099 C 
ATOM      6  C   LIG    1        2.259  -0.149   1.175  0.00  0.00    +0.103 C 
ENDROOT
BRANCH   2   7
ATOM      7  N   LIG    1        1.800   0.153  -2.397  0.00  0.00    -0.297 NA
ATOM      8  H   LIG    1        2.478   0.212  -3.143  0.00  0.00    +0.121 HD
ATOM      9  H   LIG    1        0.811   0.184  -2.604  0.00  0.00    +0.121 HD
ENDBRANCH   2   7
BRANCH   1  10
ATOM     10  C   LIG    1       -0.037  -0.064   0.061  0.00  0.00    +0.208 C 
BRANCH  10  11
ATOM     11  C   LIG    1       -0.584   1.371  -0.076  0.00  0.00    +0.319 C 
ATOM     12  O   LIG    1       -1.010   1.720  -1.200  0.00  0.00    -0.250 OA
BRANCH  11  13
ATOM     13  O   LIG    1       -0.613   2.087   0.952  0.00  0.00    -0.480 OA
ATOM     14  H   LIG    1       -0.574   3.020   0.874  0.00  0.00    +0.295 HD
ENDBRANCH  11  13
ENDBRANCH  10  11
ENDBRANCH   1  10
TORSDOF 4
