REMARK  Name = DB17456
REMARK                            x       y       z     vdW  Elec       q    Type
REMARK                         _______ _______ _______ _____ _____    ______ ____
ROOT
ATOM      1  C   LIG    1       -5.060  -1.556   0.094  0.00  0.00    +0.085 A 
ATOM      2  C   LIG    1       -4.150  -2.714   0.135  0.00  0.00    +0.264 A 
ATOM      3  O   LIG    1       -4.570  -3.857   0.352  0.00  0.00    -0.267 OA
ATOM      4  N   LIG    1       -2.816  -2.437  -0.082  0.00  0.00    -0.289 N 
ATOM      5  C   LIG    1       -2.298  -1.113  -0.254  0.00  0.00    +0.149 A 
ATOM      6  N   LIG    1       -0.948  -0.934  -0.377  0.00  0.00    -0.196 NA
ATOM      7  C   LIG    1       -0.484   0.331  -0.530  0.00  0.00    +0.222 A 
ATOM      8  N   LIG    1       -1.268   1.439  -0.567  0.00  0.00    -0.222 NA
ATOM      9  C   LIG    1       -2.604   1.251  -0.435  0.00  0.00    +0.126 A 
ATOM     10  C   LIG    1       -3.179  -0.019  -0.271  0.00  0.00    +0.040 A 
ATOM     11  C   LIG    1       -4.631  -0.272  -0.106  0.00  0.00    -0.023 A 
ATOM     12  C   LIG    1       -5.526   0.978  -0.166  0.00  0.00    +0.045 C 
ENDROOT
BRANCH   4  13
ATOM     13  C   LIG    1       -1.827  -3.567  -0.087  0.00  0.00    +0.092 C 
ATOM     14  C   LIG    1       -1.608  -4.221   1.296  0.00  0.00    +0.025 C 
ATOM     15  C   LIG    1       -1.251  -5.676   0.992  0.00  0.00    +0.002 C 
ATOM     16  C   LIG    1       -2.101  -6.016  -0.233  0.00  0.00    +0.002 C 
ATOM     17  C   LIG    1       -2.121  -4.731  -1.073  0.00  0.00    +0.025 C 
ENDBRANCH   4  13
BRANCH   1  19
ATOM     18  C   LIG    1       -7.077  -1.658   1.677  0.00  0.00    +0.092 C 
ATOM     19  C   LIG    1       -6.500  -1.789   0.270  0.00  0.00    +0.166 C 
ATOM     20  O   LIG    1       -7.236  -2.098  -0.666  0.00  0.00    -0.292 OA
ENDBRANCH   1  19
BRANCH   7  21
ATOM     21  N   LIG    1        0.910   0.439  -0.656  0.00  0.00    -0.268 N 
ATOM     22  H   LIG    1        1.382  -0.452  -0.616  0.00  0.00    +0.156 HD
BRANCH  21  23
ATOM     23  C   LIG    1        1.778   1.532  -0.832  0.00  0.00    +0.125 A 
ATOM     24  N   LIG    1        1.289   2.800  -0.897  0.00  0.00    -0.240 NA
ATOM     25  C   LIG    1        2.160   3.826  -1.069  0.00  0.00    +0.116 A 
ATOM     26  C   LIG    1        3.542   3.644  -1.183  0.00  0.00    -0.026 A 
ATOM     27  C   LIG    1        4.032   2.333  -1.113  0.00  0.00    +0.009 A 
ATOM     28  C   LIG    1        3.147   1.268  -0.936  0.00  0.00    +0.044 A 
BRANCH  26  29
ATOM     29  C   LIG    1        4.481   4.836  -1.379  0.00  0.00    +0.017 C 
ATOM     30  C   LIG    1        5.458   5.010  -0.193  0.00  0.00    -0.011 C 
ATOM     31  C   LIG    1        6.403   6.211  -0.391  0.00  0.00    -0.082 C 
ATOM     32  N   LIG    1        7.138   6.072  -1.736  0.00  0.00    +0.379 N 
ATOM     33  H   LIG    1        7.750   6.865  -1.866  0.00  0.00    -0.086 HD
ATOM     34  H   LIG    1        7.721   5.247  -1.714  0.00  0.00    -0.086 HD
ATOM     35  C   LIG    1        6.170   5.977  -2.929  0.00  0.00    -0.082 C 
ATOM     36  C   LIG    1        5.225   4.776  -2.732  0.00  0.00    -0.011 C 
ENDBRANCH  26  29
ENDBRANCH  21  23
ENDBRANCH   7  21
TORSDOF 5
