REMARK  Name = DB17026
REMARK                            x       y       z     vdW  Elec       q    Type
REMARK                         _______ _______ _______ _____ _____    ______ ____
ROOT
ATOM      1  C   LIG    1       -0.020   0.016   0.000  0.00  0.00    +0.046 C 
ATOM      2  C   LIG    1        1.507   0.027   0.000  0.00  0.00    -0.019 A 
ATOM      3  C   LIG    1        2.252   1.208   0.000  0.00  0.00    +0.051 A 
ATOM      4  N   LIG    1        1.817   2.516   0.000  0.00  0.00    -0.354 N 
ATOM      5  H   LIG    1        0.848   2.799   0.000  0.00  0.00    +0.166 HD
ATOM      6  C   LIG    1        2.883   3.382   0.000  0.00  0.00    +0.047 A 
ATOM      7  C   LIG    1        2.899   4.782   0.000  0.00  0.00    +0.026 A 
ATOM      8  C   LIG    1        4.145   5.403   0.000  0.00  0.00    +0.002 A 
ATOM      9  C   LIG    1        5.325   4.668   0.000  0.00  0.00    +0.001 A 
ATOM     10  C   LIG    1        5.306   3.275   0.000  0.00  0.00    +0.010 A 
ATOM     11  C   LIG    1        4.069   2.595   0.000  0.00  0.00    +0.008 A 
ATOM     12  C   LIG    1        3.672   1.221   0.000  0.00  0.00    +0.011 A 
ATOM     13  C   LIG    1        4.348  -0.024   0.000  0.00  0.00    -0.032 A 
ATOM     14  C   LIG    1        5.870  -0.159   0.000  0.00  0.00    +0.045 C 
ATOM     15  C   LIG    1        3.610  -1.255   0.000  0.00  0.00    +0.004 A 
ATOM     16  C   LIG    1        4.217  -2.547   0.000  0.00  0.00    +0.119 A 
ATOM     17  N   LIG    1        3.555  -3.724   0.000  0.00  0.00    -0.263 NA
ATOM     18  C   LIG    1        2.207  -3.673   0.000  0.00  0.00    +0.111 A 
ATOM     19  C   LIG    1        1.485  -2.483   0.000  0.00  0.00    +0.028 A 
ATOM     20  C   LIG    1        2.178  -1.232   0.000  0.00  0.00    -0.010 A 
ENDROOT
TORSDOF 0
