REMARK  Name = DB17101
REMARK                            x       y       z     vdW  Elec       q    Type
REMARK                         _______ _______ _______ _____ _____    ______ ____
ROOT
ATOM      1  C   LIG    1        3.364  -1.705  -0.021  0.00  0.00    +0.232 C 
ENDROOT
BRANCH   1   2
ATOM      2  C   LIG    1        1.846  -1.470   0.020  0.00  0.00    +0.082 C 
BRANCH   2   3
ATOM      3  C   LIG    1        1.465   0.018   0.051  0.00  0.00    +0.232 C 
BRANCH   3   4
ATOM      4  O   LIG    1        0.045   0.128   0.064  0.00  0.00    -0.491 OA
BRANCH   4   6
ATOM      5  C   LIG    1       -1.953   1.437   0.000  0.00  0.00    +0.037 A 
ATOM      6  C   LIG    1       -0.550   1.378   0.044  0.00  0.00    +0.127 A 
ATOM      7  C   LIG    1        0.178   2.575   0.053  0.00  0.00    +0.047 A 
ATOM      8  C   LIG    1       -0.470   3.803  -0.005  0.00  0.00    +0.018 A 
ATOM      9  C   LIG    1       -1.868   3.884  -0.057  0.00  0.00    +0.059 A 
ATOM     10  C   LIG    1       -2.611   2.683  -0.032  0.00  0.00    +0.137 A 
BRANCH   9  11
ATOM     11  C   LIG    1       -2.527   5.231  -0.192  0.00  0.00    +0.164 C 
ATOM     12  O   LIG    1       -3.703   5.397  -0.516  0.00  0.00    -0.292 OA
ATOM     13  C   LIG    1       -1.713   6.471   0.187  0.00  0.00    +0.092 C 
ENDBRANCH   9  11
BRANCH  10  14
ATOM     14  O   LIG    1       -3.988   2.696  -0.063  0.00  0.00    -0.494 OA
ATOM     15  C   LIG    1       -4.604   2.852   1.212  0.00  0.00    +0.277 C 
ENDBRANCH  10  14
BRANCH   5  16
ATOM     16  C   LIG    1       -2.770   0.139  -0.036  0.00  0.00    +0.042 C 
BRANCH  16  18
ATOM     17  C   LIG    1       -2.011  -0.670  -2.373  0.00  0.00    +0.004 C 
ATOM     18  C   LIG    1       -3.186  -0.287  -1.459  0.00  0.00    +0.001 C 
ENDBRANCH  16  18
ENDBRANCH   5  16
ENDBRANCH   4   6
ENDBRANCH   3   4
ENDBRANCH   2   3
ENDBRANCH   1   2
BRANCH   1  19
ATOM     19  O   LIG    1        3.948  -1.129   1.144  0.00  0.00    -0.491 OA
BRANCH  19  20
ATOM     20  C   LIG    1        5.323  -1.013   1.245  0.00  0.00    +0.127 A 
ATOM     21  C   LIG    1        5.834  -0.279   2.328  0.00  0.00    +0.036 A 
ATOM     22  C   LIG    1        7.222  -0.110   2.465  0.00  0.00    +0.131 A 
ATOM     23  O   LIG    1        7.643   0.726   3.488  0.00  0.00    -0.477 OA
ATOM     24  C   LIG    1        9.026   0.647   3.865  0.00  0.00    +0.281 C 
ATOM     25  C   LIG    1        9.934   0.688   2.612  0.00  0.00    +0.061 C 
ATOM     26  C   LIG    1        9.621  -0.520   1.720  0.00  0.00    +0.043 C 
ATOM     27  C   LIG    1        8.117  -0.681   1.537  0.00  0.00    -0.005 A 
ATOM     28  C   LIG    1        7.590  -1.412   0.472  0.00  0.00    +0.011 A 
ATOM     29  C   LIG    1        6.216  -1.579   0.324  0.00  0.00    +0.046 A 
BRANCH  24  30
ATOM     30  C   LIG    1        9.416   1.790   4.838  0.00  0.00    +0.346 C 
ATOM     31  O   LIG    1       10.392   1.591   5.598  0.00  0.00    -0.247 OA
BRANCH  30  32
ATOM     32  O   LIG    1        8.756   2.855   4.808  0.00  0.00    -0.478 OA
ATOM     33  H   LIG    1        8.976   3.558   5.388  0.00  0.00    +0.295 HD
ENDBRANCH  30  32
ENDBRANCH  24  30
BRANCH  21  34
ATOM     34  C   LIG    1        4.872   0.360   3.334  0.00  0.00    +0.042 C 
BRANCH  34  35
ATOM     35  C   LIG    1        4.402   1.757   2.890  0.00  0.00    +0.001 C 
ATOM     36  C   LIG    1        3.393   2.386   3.859  0.00  0.00    +0.004 C 
ENDBRANCH  34  35
ENDBRANCH  21  34
ENDBRANCH  19  20
ENDBRANCH   1  19
TORSDOF 14
