REMARK  Name = DB17383
REMARK                            x       y       z     vdW  Elec       q    Type
REMARK                         _______ _______ _______ _____ _____    ______ ____
ROOT
ATOM      1  N   LIG    1        1.513  -0.047   0.087  0.00  0.00    -0.280 N 
ATOM      2  H   LIG    1        1.931   0.833   0.352  0.00  0.00    +0.155 HD
ATOM      3  C   LIG    1        2.379  -1.053  -0.180  0.00  0.00    +0.270 C 
ATOM      4  O   LIG    1        2.055  -2.180  -0.558  0.00  0.00    -0.268 OA
ENDROOT
BRANCH   1   8
ATOM      5  C   LIG    1       -2.678   0.218  -0.003  0.00  0.00    -0.064 A 
ATOM      6  C   LIG    1       -1.877   1.347   0.175  0.00  0.00    +0.003 A 
ATOM      7  C   LIG    1       -0.491   1.221   0.197  0.00  0.00    +0.023 A 
ATOM      8  C   LIG    1        0.106  -0.033   0.045  0.00  0.00    +0.034 A 
ATOM      9  C   LIG    1       -0.703  -1.170  -0.113  0.00  0.00    +0.023 A 
ATOM     10  C   LIG    1       -2.089  -1.040  -0.139  0.00  0.00    +0.003 A 
BRANCH   5  11
ATOM     11  C   LIG    1       -4.193   0.359  -0.023  0.00  0.00    -0.043 C 
BRANCH  11  16
ATOM     12  C   LIG    1       -7.425  -0.559  -3.610  0.00  0.00    +0.104 C 
ATOM     13  N   LIG    1       -6.578   0.629  -3.700  0.00  0.00    -0.309 NA
ATOM     14  C   LIG    1       -5.146   0.325  -3.818  0.00  0.00    +0.065 C 
ATOM     15  C   LIG    1       -4.535  -0.212  -2.500  0.00  0.00    -0.063 C 
ATOM     16  N   LIG    1       -4.767   0.830  -1.379  0.00  0.00    +0.384 N 
ATOM     17  H   LIG    1       -4.304   1.686  -1.650  0.00  0.00    -0.081 HD
ATOM     18  C   LIG    1       -6.280   1.126  -1.255  0.00  0.00    -0.063 C 
ATOM     19  C   LIG    1       -6.811   1.605  -2.629  0.00  0.00    +0.065 C 
ENDBRANCH  11  16
ENDBRANCH   5  11
ENDBRANCH   1   8
BRANCH   3  20
ATOM     20  C   LIG    1        3.780  -0.707   0.027  0.00  0.00    +0.168 A 
ATOM     21  C   LIG    1        4.867  -1.631   0.118  0.00  0.00    +0.083 A 
ATOM     22  C   LIG    1        5.994  -0.832   0.205  0.00  0.00    +0.129 A 
ATOM     23  N   LIG    1        5.548   0.454   0.201  0.00  0.00    -0.282 N 
ATOM     24  H   LIG    1        6.137   1.272   0.264  0.00  0.00    +0.188 HD
ATOM     25  N   LIG    1        4.224   0.540   0.092  0.00  0.00    -0.167 NA
BRANCH  21  26
ATOM     26  N   LIG    1        4.875  -3.006   0.101  0.00  0.00    -0.296 N 
ATOM     27  H   LIG    1        5.476  -3.497  -0.545  0.00  0.00    +0.154 HD
BRANCH  26  28
ATOM     28  C   LIG    1        4.219  -3.872   0.991  0.00  0.00    +0.135 A 
ATOM     29  N   LIG    1        4.245  -5.184   0.639  0.00  0.00    -0.220 NA
ATOM     30  C   LIG    1        3.620  -6.068   1.456  0.00  0.00    +0.225 A 
ATOM     31  N   LIG    1        2.964  -5.809   2.617  0.00  0.00    -0.218 NA
ATOM     32  C   LIG    1        2.980  -4.514   2.949  0.00  0.00    +0.143 A 
ATOM     33  N   LIG    1        2.415  -3.947   4.070  0.00  0.00    -0.346 N 
ATOM     34  H   LIG    1        1.903  -4.411   4.805  0.00  0.00    +0.167 HD
ATOM     35  C   LIG    1        2.660  -2.595   4.070  0.00  0.00    +0.085 A 
ATOM     36  C   LIG    1        3.390  -2.257   2.947  0.00  0.00    +0.032 A 
ATOM     37  C   LIG    1        3.594  -3.468   2.197  0.00  0.00    +0.059 A 
ENDBRANCH  26  28
ENDBRANCH  21  26
ENDBRANCH   3  20
TORSDOF 6
