REMARK  Name = DB17166
REMARK                            x       y       z     vdW  Elec       q    Type
REMARK                         _______ _______ _______ _____ _____    ______ ____
ROOT
ATOM      1  C   LIG    1       -5.881   8.080  -0.747  0.00  0.00    +0.024 A 
ATOM      2  C   LIG    1       -5.467   6.934  -1.437  0.00  0.00    -0.042 A 
ATOM      3  C   LIG    1       -4.429   7.080  -2.547  0.00  0.00    +0.035 C 
ATOM      4  C   LIG    1       -3.675   5.776  -2.815  0.00  0.00    +0.006 C 
ATOM      5  C   LIG    1       -4.685   4.642  -3.026  0.00  0.00    +0.017 C 
ATOM      6  C   LIG    1       -5.563   4.351  -1.768  0.00  0.00    +0.046 C 
ATOM      7  C   LIG    1       -6.774   3.506  -2.246  0.00  0.00    +0.242 C 
ATOM      8  O   LIG    1       -7.266   2.646  -1.224  0.00  0.00    -0.489 OA
ATOM      9  C   LIG    1       -6.687   1.399  -1.115  0.00  0.00    +0.141 A 
ATOM     10  C   LIG    1       -7.582   0.331  -1.111  0.00  0.00    +0.048 A 
ATOM     11  C   LIG    1       -7.135  -0.981  -1.087  0.00  0.00    +0.017 A 
ATOM     12  C   LIG    1       -5.768  -1.275  -1.076  0.00  0.00    +0.040 A 
ATOM     13  C   LIG    1       -5.316  -2.731  -1.055  0.00  0.00    +0.263 C 
ATOM     14  O   LIG    1       -6.181  -3.611  -1.099  0.00  0.00    -0.269 OA
ATOM     15  N   LIG    1       -4.020  -2.923  -0.933  0.00  0.00    -0.186 N 
ATOM     16  H   LIG    1       -3.423  -2.142  -0.991  0.00  0.00    +0.176 HD
ATOM     17  S   LIG    1       -3.375  -4.345  -0.697  0.00  0.00    +0.048 S 
ATOM     18  O   LIG    1       -1.945  -4.339  -1.022  0.00  0.00    -0.155 OA
ATOM     19  O   LIG    1       -4.125  -5.463  -1.285  0.00  0.00    -0.155 OA
ATOM     20  C   LIG    1       -3.461  -4.603   1.210  0.00  0.00    +0.151 C 
ATOM     21  C   LIG    1       -4.903  -5.005   1.597  0.00  0.00    +0.034 C 
ATOM     22  C   LIG    1       -2.909  -3.370   2.006  0.00  0.00    +0.015 C 
ATOM     23  C   LIG    1       -3.200  -3.462   3.523  0.00  0.00    +0.010 C 
ATOM     24  C   LIG    1       -1.390  -3.120   1.781  0.00  0.00    +0.032 C 
ATOM     25  C   LIG    1       -1.055  -1.942   0.880  0.00  0.00    -0.028 C 
ATOM     26  C   LIG    1       -0.428  -0.826   1.287  0.00  0.00    +0.000 C 
ATOM     27  C   LIG    1       -0.005   0.322   0.376  0.00  0.00    +0.144 C 
ATOM     28  C   LIG    1       -0.817   1.628   0.542  0.00  0.00    +0.026 C 
ATOM     29  C   LIG    1       -1.047   2.156   1.970  0.00  0.00    +0.007 C 
ATOM     30  C   LIG    1       -2.404   2.682   1.468  0.00  0.00    +0.006 C 
ATOM     31  C   LIG    1       -2.344   1.594   0.374  0.00  0.00    +0.012 C 
ATOM     32  C   LIG    1       -2.891   1.978  -1.023  0.00  0.00    +0.109 C 
ATOM     33  N   LIG    1       -4.342   2.218  -1.056  0.00  0.00    -0.326 N 
ATOM     34  C   LIG    1       -4.870  -0.188  -1.075  0.00  0.00    +0.040 A 
ATOM     35  C   LIG    1       -5.287   1.159  -1.059  0.00  0.00    +0.073 A 
ATOM     36  C   LIG    1       -4.715   3.595  -0.714  0.00  0.00    +0.120 C 
ATOM     37  C   LIG    1       -6.044   5.677  -1.114  0.00  0.00    -0.033 A 
ATOM     38  C   LIG    1       -7.033   5.650  -0.114  0.00  0.00    +0.006 A 
ATOM     39  C   LIG    1       -7.442   6.800   0.553  0.00  0.00    +0.020 A 
ATOM     40  C   LIG    1       -6.860   8.020   0.238  0.00  0.00    +0.041 A 
ATOM     41 CL   LIG    1       -7.353   9.454   1.063  0.00  0.00    -0.084 Cl
ENDROOT
BRANCH  27  42
ATOM     42  O   LIG    1        1.364   0.663   0.596  0.00  0.00    -0.375 OA
ATOM     43  C   LIG    1        2.313  -0.313   0.182  0.00  0.00    +0.194 C 
ENDBRANCH  27  42
TORSDOF 1
