REMARK  Name = DB17219
REMARK                            x       y       z     vdW  Elec       q    Type
REMARK                         _______ _______ _______ _____ _____    ______ ____
ROOT
ATOM      1  C   LIG    1        1.544  -0.502  -0.958  0.00  0.00    +0.032 C 
ATOM      2  C   LIG    1        2.230   0.745  -0.938  0.00  0.00    +0.049 A 
ATOM      3  N   LIG    1        3.568   1.040  -0.709  0.00  0.00    -0.354 N 
ATOM      4  H   LIG    1        4.276   0.347  -0.515  0.00  0.00    +0.166 HD
ATOM      5  C   LIG    1        3.810   2.406  -0.774  0.00  0.00    +0.049 A 
ATOM      6  C   LIG    1        2.588   2.963  -1.051  0.00  0.00    +0.028 A 
ATOM      7  C   LIG    1        5.014   3.147  -0.603  0.00  0.00    +0.032 C 
ATOM      8  C   LIG    1        6.265   2.548  -0.391  0.00  0.00    +0.052 C 
ATOM      9  C   LIG    1        7.535   3.326  -0.132  0.00  0.00    +0.062 C 
ATOM     10  C   LIG    1        8.600   2.309  -0.396  0.00  0.00    +0.062 C 
ATOM     11  C   LIG    1        7.853   1.003  -0.256  0.00  0.00    +0.052 C 
ATOM     12  C   LIG    1        8.487  -0.236  -0.077  0.00  0.00    +0.032 C 
ATOM     13  C   LIG    1        7.780  -1.465   0.056  0.00  0.00    +0.049 A 
ATOM     14  C   LIG    1        8.371  -2.682   0.276  0.00  0.00    +0.028 A 
ATOM     15  C   LIG    1        7.391  -3.659   0.378  0.00  0.00    +0.028 A 
ATOM     16  C   LIG    1        6.159  -3.089   0.196  0.00  0.00    +0.049 A 
ATOM     17  C   LIG    1        4.928  -3.803   0.226  0.00  0.00    +0.032 C 
ATOM     18  C   LIG    1        3.684  -3.209  -0.029  0.00  0.00    +0.052 C 
ATOM     19  N   LIG    1        3.472  -1.906  -0.353  0.00  0.00    -0.255 NA
ATOM     20  C   LIG    1        2.371  -3.955   0.039  0.00  0.00    +0.062 C 
ATOM     21  C   LIG    1        1.445  -3.056  -0.718  0.00  0.00    +0.062 C 
ATOM     22  N   LIG    1        6.419  -1.738   0.001  0.00  0.00    -0.354 N 
ATOM     23  H   LIG    1        5.707  -1.040  -0.155  0.00  0.00    +0.166 HD
ATOM     24  N   LIG    1        6.513   1.212  -0.349  0.00  0.00    -0.255 NA
ATOM     25  C   LIG    1        1.638   1.960  -1.162  0.00  0.00    +0.028 A 
ATOM     26  C   LIG    1        2.164  -1.727  -0.676  0.00  0.00    +0.052 C 
ENDROOT
BRANCH   1  30
ATOM     27  C   LIG    1       -2.233  -0.215  -0.598  0.00  0.00    +0.141 A 
ATOM     28  C   LIG    1       -0.864  -0.201  -0.298  0.00  0.00    +0.160 A 
ATOM     29  F   LIG    1       -0.443   0.112   0.951  0.00  0.00    -0.203 F 
ATOM     30  C   LIG    1        0.086  -0.512  -1.283  0.00  0.00    +0.058 A 
ATOM     31  C   LIG    1       -0.353  -0.834  -2.574  0.00  0.00    +0.134 A 
ATOM     32  F   LIG    1        0.539  -1.135  -3.546  0.00  0.00    -0.205 F 
ATOM     33  C   LIG    1       -1.714  -0.846  -2.875  0.00  0.00    +0.041 A 
ATOM     34  C   LIG    1       -2.651  -0.539  -1.892  0.00  0.00    +0.034 A 
BRANCH  27  35
ATOM     35  S   LIG    1       -3.458   0.167   0.660  0.00  0.00    +0.061 S 
ATOM     36  O   LIG    1       -2.923   1.263   1.476  0.00  0.00    -0.153 OA
ATOM     37  O   LIG    1       -4.752   0.309  -0.017  0.00  0.00    -0.153 OA
BRANCH  35  39
ATOM     38  C   LIG    1       -2.408  -1.667   2.505  0.00  0.00    +0.127 C 
ATOM     39  N   LIG    1       -3.554  -1.278   1.666  0.00  0.00    -0.193 NA
ATOM     40  H   LIG    1       -4.121  -2.046   1.296  0.00  0.00    +0.148 HD
ENDBRANCH  35  39
ENDBRANCH  27  35
ENDBRANCH   1  30
BRANCH   7  41
ATOM     41  C   LIG    1        4.941   4.638  -0.644  0.00  0.00    +0.058 A 
ATOM     42  C   LIG    1        5.329   5.343  -1.793  0.00  0.00    +0.134 A 
ATOM     43  F   LIG    1        5.789   4.680  -2.880  0.00  0.00    -0.205 F 
ATOM     44  C   LIG    1        5.240   6.734  -1.833  0.00  0.00    +0.041 A 
ATOM     45  C   LIG    1        4.758   7.437  -0.732  0.00  0.00    +0.034 A 
ATOM     46  C   LIG    1        4.365   6.750   0.419  0.00  0.00    +0.141 A 
ATOM     47  C   LIG    1        4.462   5.354   0.463  0.00  0.00    +0.160 A 
ATOM     48  F   LIG    1        4.083   4.686   1.579  0.00  0.00    -0.203 F 
BRANCH  46  49
ATOM     49  S   LIG    1        3.726   7.650   1.831  0.00  0.00    +0.061 S 
ATOM     50  O   LIG    1        3.554   9.051   1.429  0.00  0.00    -0.153 OA
ATOM     51  O   LIG    1        4.579   7.298   2.972  0.00  0.00    -0.153 OA
BRANCH  49  52
ATOM     52  N   LIG    1        2.128   6.968   2.125  0.00  0.00    -0.193 NA
ATOM     53  H   LIG    1        2.116   6.074   2.624  0.00  0.00    +0.148 HD
ATOM     54  C   LIG    1        1.086   7.137   1.099  0.00  0.00    +0.127 C 
ENDBRANCH  49  52
ENDBRANCH  46  49
ENDBRANCH   7  41
BRANCH  12  55
ATOM     55  C   LIG    1        9.980  -0.257  -0.012  0.00  0.00    +0.058 A 
ATOM     56  C   LIG    1       10.745  -0.166  -1.183  0.00  0.00    +0.134 A 
ATOM     57  F   LIG    1       10.140  -0.064  -2.390  0.00  0.00    -0.205 F 
ATOM     58  C   LIG    1       12.137  -0.183  -1.123  0.00  0.00    +0.041 A 
ATOM     59  C   LIG    1       12.784  -0.292   0.106  0.00  0.00    +0.034 A 
ATOM     60  C   LIG    1       12.037  -0.385   1.283  0.00  0.00    +0.141 A 
ATOM     61  C   LIG    1       10.638  -0.366   1.223  0.00  0.00    +0.160 A 
ATOM     62  F   LIG    1        9.913  -0.452   2.364  0.00  0.00    -0.203 F 
BRANCH  60  63
ATOM     63  S   LIG    1       12.866  -0.527   2.865  0.00  0.00    +0.061 S 
ATOM     64  O   LIG    1       14.307  -0.377   2.635  0.00  0.00    -0.153 OA
ATOM     65  O   LIG    1       12.344  -1.733   3.517  0.00  0.00    -0.153 OA
BRANCH  63  66
ATOM     66  N   LIG    1       12.320   0.865   3.795  0.00  0.00    -0.193 NA
ATOM     67  H   LIG    1       11.323   0.794   4.014  0.00  0.00    +0.148 HD
ATOM     68  C   LIG    1       13.073   1.144   5.030  0.00  0.00    +0.127 C 
ENDBRANCH  63  66
ENDBRANCH  60  63
ENDBRANCH  12  55
BRANCH  17  69
ATOM     69  C   LIG    1        4.956  -5.263   0.536  0.00  0.00    +0.058 A 
ATOM     70  C   LIG    1        4.700  -5.720   1.837  0.00  0.00    +0.134 A 
ATOM     71  F   LIG    1        4.422  -4.841   2.828  0.00  0.00    -0.205 F 
ATOM     72  C   LIG    1        4.731  -7.083   2.127  0.00  0.00    +0.041 A 
ATOM     73  C   LIG    1        5.018  -8.006   1.124  0.00  0.00    +0.034 A 
ATOM     74  C   LIG    1        5.275  -7.568  -0.178  0.00  0.00    +0.141 A 
ATOM     75  C   LIG    1        5.240  -6.199  -0.470  0.00  0.00    +0.160 A 
ATOM     76  F   LIG    1        5.485  -5.771  -1.732  0.00  0.00    -0.203 F 
BRANCH  74  77
ATOM     77  S   LIG    1        5.650  -8.755  -1.468  0.00  0.00    +0.061 S 
ATOM     78  O   LIG    1        4.649  -8.557  -2.522  0.00  0.00    -0.153 OA
ATOM     79  O   LIG    1        5.819 -10.068  -0.833  0.00  0.00    -0.153 OA
BRANCH  77  80
ATOM     80  N   LIG    1        7.212  -8.258  -2.112  0.00  0.00    -0.193 NA
ATOM     81  H   LIG    1        7.189  -7.471  -2.767  0.00  0.00    +0.148 HD
ATOM     82  C   LIG    1        8.393  -8.319  -1.234  0.00  0.00    +0.127 C 
ENDBRANCH  77  80
ENDBRANCH  74  77
ENDBRANCH  17  69
TORSDOF 12
