REMARK  Name = DB17104
REMARK                            x       y       z     vdW  Elec       q    Type
REMARK                         _______ _______ _______ _____ _____    ______ ____
ROOT
ATOM      1  C   LIG    1        5.115  -0.283  -0.985  0.00  0.00    +0.188 C 
ENDROOT
BRANCH   1   2
ATOM      2  O   LIG    1        3.718  -0.491  -0.825  0.00  0.00    -0.375 OA
BRANCH   2   3
ATOM      3  C   LIG    1        3.355  -0.953   0.470  0.00  0.00    +0.188 C 
BRANCH   3   4
ATOM      4  C   LIG    1        1.838  -1.171   0.532  0.00  0.00    +0.188 C 
BRANCH   4   5
ATOM      5  O   LIG    1        1.169   0.065   0.321  0.00  0.00    -0.375 OA
BRANCH   5   6
ATOM      6  C   LIG    1       -0.247  -0.053   0.273  0.00  0.00    +0.188 C 
BRANCH   6   7
ATOM      7  C   LIG    1       -0.874   1.344   0.183  0.00  0.00    +0.188 C 
BRANCH   7   8
ATOM      8  O   LIG    1       -0.530   2.084   1.346  0.00  0.00    -0.375 OA
BRANCH   8   9
ATOM      9  C   LIG    1       -1.074   3.397   1.376  0.00  0.00    +0.188 C 
BRANCH   9  10
ATOM     10  C   LIG    1       -0.698   4.065   2.705  0.00  0.00    +0.188 C 
BRANCH  10  11
ATOM     11  O   LIG    1       -1.220   3.291   3.776  0.00  0.00    -0.375 OA
BRANCH  11  12
ATOM     12  C   LIG    1       -0.863   3.770   5.065  0.00  0.00    +0.188 C 
BRANCH  12  13
ATOM     13  C   LIG    1       -1.422   2.807   6.129  0.00  0.00    +0.188 C 
BRANCH  13  14
ATOM     14  O   LIG    1       -1.061   1.446   5.909  0.00  0.00    -0.374 OA
BRANCH  14  15
ATOM     15  C   LIG    1        0.322   1.141   6.057  0.00  0.00    +0.201 C 
BRANCH  15  16
ATOM     16  C   LIG    1        0.534  -0.364   5.856  0.00  0.00    +0.257 C 
BRANCH  16  17
ATOM     17  O   LIG    1       -0.224  -1.083   6.827  0.00  0.00    -0.490 OA
BRANCH  17  22
ATOM     18  C   LIG    1       -0.969  -4.492   7.895  0.00  0.00    +0.008 A 
ATOM     19  C   LIG    1       -0.196  -5.259   7.020  0.00  0.00    -0.033 A 
ATOM     20  C   LIG    1        0.580  -4.626   6.045  0.00  0.00    +0.008 A 
ATOM     21  C   LIG    1        0.592  -3.237   5.953  0.00  0.00    +0.046 A 
ATOM     22  C   LIG    1       -0.177  -2.464   6.838  0.00  0.00    +0.121 A 
ATOM     23  C   LIG    1       -0.955  -3.104   7.803  0.00  0.00    +0.046 A 
BRANCH  19  24
ATOM     24  C   LIG    1       -0.211  -6.780   7.125  0.00  0.00    +0.119 C 
BRANCH  24  25
ATOM     25  N   LIG    1        1.057  -7.359   7.603  0.00  0.00    -0.279 NA
ATOM     26  H   LIG    1        1.639  -7.791   6.900  0.00  0.00    +0.125 HD
BRANCH  25  27
ATOM     27  C   LIG    1        1.523  -7.402   8.856  0.00  0.00    +0.167 C 
BRANCH  27  28
ATOM     28  N   LIG    1        0.873  -6.906   9.905  0.00  0.00    -0.297 NA
ATOM     29  H   LIG    1       -0.028  -6.469   9.776  0.00  0.00    +0.121 HD
ATOM     30  H   LIG    1        1.292  -6.944  10.823  0.00  0.00    +0.121 HD
ENDBRANCH  27  28
BRANCH  27  31
ATOM     31  N   LIG    1        2.700  -7.970   9.066  0.00  0.00    -0.297 NA
ATOM     32  H   LIG    1        2.939  -8.306   9.988  0.00  0.00    +0.121 HD
ATOM     33  H   LIG    1        3.357  -8.065   8.305  0.00  0.00    +0.121 HD
ENDBRANCH  27  31
ENDBRANCH  25  27
ENDBRANCH  24  25
ENDBRANCH  19  24
ENDBRANCH  17  22
ENDBRANCH  16  17
ENDBRANCH  15  16
ENDBRANCH  14  15
ENDBRANCH  13  14
ENDBRANCH  12  13
ENDBRANCH  11  12
ENDBRANCH  10  11
ENDBRANCH   9  10
ENDBRANCH   8   9
ENDBRANCH   7   8
ENDBRANCH   6   7
ENDBRANCH   5   6
ENDBRANCH   4   5
ENDBRANCH   3   4
ENDBRANCH   2   3
ENDBRANCH   1   2
BRANCH   1  34
ATOM     34  C   LIG    1        5.401   0.157  -2.426  0.00  0.00    +0.188 C 
BRANCH  34  35
ATOM     35  O   LIG    1        6.808   0.297  -2.591  0.00  0.00    -0.376 OA
BRANCH  35  36
ATOM     36  C   LIG    1        7.248   0.561  -3.919  0.00  0.00    +0.183 C 
BRANCH  36  37
ATOM     37  C   LIG    1        6.898   1.990  -4.385  0.00  0.00    +0.173 C 
BRANCH  37  38
ATOM     38  N   LIG    1        7.523   2.275  -5.668  0.00  0.00    -0.249 N 
ATOM     39  N   LIG    1        6.978   1.830  -6.805  0.00  0.00    -0.065 NA
ATOM     40  N   LIG    1        7.834   2.213  -7.822  0.00  0.00    -0.131 NA
ATOM     41  C   LIG    1        8.871   2.846  -7.296  0.00  0.00    +0.120 A 
ATOM     42  C   LIG    1        8.716   2.902  -5.917  0.00  0.00    +0.137 A 
BRANCH  41  43
ATOM     43  C   LIG    1        9.988   3.377  -8.165  0.00  0.00    +0.288 C 
BRANCH  43  44
ATOM     44  O   LIG    1        9.535   4.549  -8.836  0.00  0.00    -0.484 OA
BRANCH  44  45
ATOM     45  C   LIG    1       10.283   4.906  -9.932  0.00  0.00    +0.147 A 
ATOM     46  C   LIG    1        9.955   4.413 -11.200  0.00  0.00    +0.059 A 
ATOM     47  I   LIG    1        8.332   3.118 -11.470  0.00  0.00    -0.040 I 
ATOM     48  C   LIG    1       10.710   4.786 -12.312  0.00  0.00    +0.064 A 
ATOM     49  C   LIG    1       11.797   5.664 -12.177  0.00  0.00    +0.131 A 
ATOM     50  C   LIG    1       12.112   6.155 -10.910  0.00  0.00    +0.064 A 
ATOM     51  C   LIG    1       11.361   5.789  -9.793  0.00  0.00    +0.059 A 
ATOM     52  I   LIG    1       11.869   6.588  -7.924  0.00  0.00    -0.040 I 
BRANCH  49  53
ATOM     53  O   LIG    1       12.592   6.077 -13.230  0.00  0.00    -0.454 OA
BRANCH  53  54
ATOM     54  C   LIG    1       12.253   5.778 -14.529  0.00  0.00    +0.155 A 
ATOM     55  C   LIG    1       12.752   4.619 -15.137  0.00  0.00    +0.057 A 
ATOM     56  I   LIG    1       14.005   3.310 -14.087  0.00  0.00    -0.040 I 
ATOM     57  C   LIG    1       12.410   4.319 -16.455  0.00  0.00    +0.022 A 
ATOM     58  C   LIG    1       11.571   5.170 -17.181  0.00  0.00    -0.035 A 
ATOM     59  C   LIG    1       11.083   6.332 -16.576  0.00  0.00    +0.022 A 
ATOM     60  C   LIG    1       11.421   6.638 -15.257  0.00  0.00    +0.057 A 
ATOM     61  I   LIG    1       10.661   8.388 -14.394  0.00  0.00    -0.040 I 
BRANCH  58  62
ATOM     62  C   LIG    1       11.196   4.839 -18.627  0.00  0.00    +0.155 C 
BRANCH  62  63
ATOM     63  C   LIG    1        9.832   4.121 -18.754  0.00  0.00    +0.309 C 
ATOM     64  O   LIG    1        9.114   4.446 -19.726  0.00  0.00    -0.251 OA
BRANCH  63  65
ATOM     65  O   LIG    1        9.527   3.237 -17.919  0.00  0.00    -0.480 OA
ATOM     66  H   LIG    1       10.110   3.040 -17.212  0.00  0.00    +0.295 HD
ENDBRANCH  63  65
ENDBRANCH  62  63
ENDBRANCH  58  62
ENDBRANCH  53  54
ENDBRANCH  49  53
ENDBRANCH  44  45
ENDBRANCH  43  44
ENDBRANCH  41  43
ENDBRANCH  37  38
ENDBRANCH  36  37
ENDBRANCH  35  36
ENDBRANCH  34  35
ENDBRANCH   1  34
TORSDOF 35
