REMARK  Name = DB17142
REMARK                            x       y       z     vdW  Elec       q    Type
REMARK                         _______ _______ _______ _____ _____    ______ ____
ROOT
ATOM      1  C   LIG    1        1.098  -0.210   0.204  0.00  0.00    +0.171 C 
ATOM      2  C   LIG    1        1.766   0.157  -1.149  0.00  0.00    +0.237 C 
ATOM      3  O   LIG    1        1.819  -0.646  -2.083  0.00  0.00    -0.274 OA
ATOM      4  N   LIG    1        2.268   1.423  -1.193  0.00  0.00    -0.291 N 
ATOM      5  C   LIG    1        2.145   2.346  -0.047  0.00  0.00    +0.203 C 
ATOM      6  C   LIG    1        2.188   1.706   1.358  0.00  0.00    +0.234 C 
ATOM      7  O   LIG    1        2.633   2.316   2.331  0.00  0.00    -0.274 OA
ATOM      8  N   LIG    1        1.683   0.441   1.400  0.00  0.00    -0.288 N 
ENDROOT
BRANCH   1   9
ATOM      9  C   LIG    1       -0.456  -0.210   0.056  0.00  0.00    +0.127 C 
BRANCH   9  12
ATOM     10  N   LIG    1       -1.712   1.540  -1.118  0.00  0.00    -0.315 N 
ATOM     11  H   LIG    1       -1.679   0.900  -1.899  0.00  0.00    +0.149 HD
ATOM     12  C   LIG    1       -1.130   1.173   0.037  0.00  0.00    +0.215 C 
ATOM     13  O   LIG    1       -1.118   1.877   1.048  0.00  0.00    -0.276 OA
BRANCH  10  14
ATOM     14  C   LIG    1       -2.394   2.812  -1.353  0.00  0.00    +0.109 C 
BRANCH  14  15
ATOM     15  C   LIG    1       -3.751   2.932  -0.631  0.00  0.00    +0.056 C 
BRANCH  15  23
ATOM     16  C   LIG    1       -6.352   4.391  -4.275  0.00  0.00    +0.121 A 
ATOM     17  C   LIG    1       -6.795   5.713  -4.121  0.00  0.00    +0.047 A 
ATOM     18  C   LIG    1       -6.481   6.481  -2.999  0.00  0.00    +0.030 A 
ATOM     19  C   LIG    1       -5.695   5.876  -2.016  0.00  0.00    +0.047 A 
ATOM     20  N   LIG    1       -5.223   6.356  -0.815  0.00  0.00    -0.360 N 
ATOM     21  H   LIG    1       -5.368   7.273  -0.416  0.00  0.00    +0.165 HD
ATOM     22  C   LIG    1       -4.488   5.386  -0.186  0.00  0.00    +0.087 A 
ATOM     23  C   LIG    1       -4.454   4.234  -0.951  0.00  0.00    -0.021 A 
ATOM     24  C   LIG    1       -5.223   4.535  -2.132  0.00  0.00    +0.006 A 
ATOM     25  C   LIG    1       -5.566   3.804  -3.281  0.00  0.00    +0.056 A 
BRANCH  16  27
ATOM     26  C   LIG    1       -7.450   4.120  -6.416  0.00  0.00    +0.277 C 
ATOM     27  O   LIG    1       -6.642   3.596  -5.368  0.00  0.00    -0.495 OA
ENDBRANCH  16  27
ENDBRANCH  15  23
ENDBRANCH  14  15
ENDBRANCH  10  14
ENDBRANCH   9  12
ENDBRANCH   1   9
BRANCH   4  28
ATOM     28  C   LIG    1        2.640   1.998  -2.493  0.00  0.00    +0.113 C 
BRANCH  28  29
ATOM     29  C   LIG    1        1.438   2.630  -3.225  0.00  0.00    +0.055 C 
BRANCH  29  30
ATOM     30  C   LIG    1        1.817   3.154  -4.605  0.00  0.00    -0.027 A 
ATOM     31  C   LIG    1        1.930   2.294  -5.712  0.00  0.00    +0.046 A 
ATOM     32 CL   LIG    1        1.639   0.593  -5.574  0.00  0.00    -0.083 Cl
ATOM     33  C   LIG    1        2.286   2.809  -6.961  0.00  0.00    +0.040 A 
ATOM     34  C   LIG    1        2.533   4.173  -7.117  0.00  0.00    +0.042 A 
ATOM     35 CL   LIG    1        2.973   4.800  -8.663  0.00  0.00    -0.083 Cl
ATOM     36  C   LIG    1        2.423   5.029  -6.022  0.00  0.00    +0.020 A 
ATOM     37  C   LIG    1        2.067   4.521  -4.773  0.00  0.00    +0.006 A 
ENDBRANCH  29  30
ENDBRANCH  28  29
ENDBRANCH   4  28
BRANCH   8  38
ATOM     38  C   LIG    1        1.543  -0.239   2.696  0.00  0.00    +0.114 C 
BRANCH  38  39
ATOM     39  C   LIG    1        2.868  -0.809   3.245  0.00  0.00    +0.061 C 
BRANCH  39  40
ATOM     40  C   LIG    1        2.682  -1.545   4.556  0.00  0.00    -0.009 A 
ATOM     41  S   LIG    1        2.027  -0.756   5.971  0.00  0.00    -0.102 S 
ATOM     42  C   LIG    1        2.157  -2.200   6.915  0.00  0.00    +0.045 A 
ATOM     43  C   LIG    1        2.683  -3.244   6.178  0.00  0.00    +0.008 A 
ATOM     44  C   LIG    1        2.974  -2.875   4.862  0.00  0.00    +0.011 A 
ENDBRANCH  39  40
ENDBRANCH  38  39
ENDBRANCH   8  38
TORSDOF 12
