REMARK  Name = DB17820
REMARK                            x       y       z     vdW  Elec       q    Type
REMARK                         _______ _______ _______ _____ _____    ______ ____
ROOT
ATOM      1  C   LIG    1        3.535   1.256  -0.040  0.00  0.00    +0.240 C 
ATOM      2  N   LIG    1        4.119   2.435  -0.398  0.00  0.00    -0.295 N 
ATOM      3  C   LIG    1        5.588   2.575  -0.418  0.00  0.00    +0.127 C 
ATOM      4  C   LIG    1        6.008   3.105  -1.812  0.00  0.00    +0.128 C 
ATOM      5  N   LIG    1        5.274   4.357  -2.082  0.00  0.00    -0.283 N 
ATOM      6  C   LIG    1        5.944   5.530  -2.264  0.00  0.00    +0.300 C 
ATOM      7  O   LIG    1        7.172   5.622  -2.250  0.00  0.00    -0.253 OA
ATOM      8  N   LIG    1        5.201   6.624  -2.466  0.00  0.00    -0.313 N 
ATOM      9  H   LIG    1        5.648   7.518  -2.608  0.00  0.00    +0.146 HD
ATOM     10  H   LIG    1        4.193   6.565  -2.477  0.00  0.00    +0.146 HD
ATOM     11  C   LIG    1        3.801   4.218  -2.054  0.00  0.00    +0.128 C 
ATOM     12  C   LIG    1        3.395   3.699  -0.655  0.00  0.00    +0.127 C 
ATOM     13  O   LIG    1        4.186   0.305   0.401  0.00  0.00    -0.271 OA
ENDROOT
BRANCH   1  15
ATOM     14  C   LIG    1        1.331   0.312   0.499  0.00  0.00    +0.009 C 
ATOM     15  C   LIG    1        2.105   1.134  -0.242  0.00  0.00    +0.068 C 
BRANCH  14  24
ATOM     16  C   LIG    1       -0.521   2.661   0.612  0.00  0.00    +0.039 C 
ATOM     17  C   LIG    1       -0.965   1.220   0.357  0.00  0.00    -0.069 C 
ATOM     18  C   LIG    1       -2.472   1.102   0.116  0.00  0.00    +0.031 C 
ATOM     19  C   LIG    1       -2.992  -0.323   0.329  0.00  0.00    +0.005 C 
ATOM     20  C   LIG    1       -2.099  -1.322  -0.405  0.00  0.00    +0.011 C 
ATOM     21  C   LIG    1       -0.622  -1.307   0.088  0.00  0.00    -0.010 C 
ATOM     22  C   LIG    1       -0.533  -2.054   1.443  0.00  0.00    +0.016 C 
ATOM     23  C   LIG    1        0.227  -1.987  -1.018  0.00  0.00    +0.016 C 
ATOM     24  C   LIG    1       -0.113   0.148   0.315  0.00  0.00    -0.043 C 
ENDBRANCH  14  24
ENDBRANCH   1  15
TORSDOF 2
