REMARK  Name = DB17988
REMARK                            x       y       z     vdW  Elec       q    Type
REMARK                         _______ _______ _______ _____ _____    ______ ____
ROOT
ATOM      1  C   LIG    1       -0.038  -0.106   0.246  0.00  0.00    -0.021 C 
ENDROOT
BRANCH   1   2
ATOM      2  C   LIG    1       -0.570   1.329   0.417  0.00  0.00    -0.083 C 
BRANCH   2   3
ATOM      3  N   LIG    1       -2.106   1.371   0.319  0.00  0.00    +0.381 N 
ATOM      4  H   LIG    1       -2.385   2.340   0.249  0.00  0.00    -0.086 HD
ATOM      5  H   LIG    1       -2.393   0.915  -0.536  0.00  0.00    -0.086 HD
BRANCH   3   6
ATOM      6  C   LIG    1       -2.864   0.745   1.508  0.00  0.00    -0.051 C 
BRANCH   6   7
ATOM      7  C   LIG    1       -4.392   0.920   1.347  0.00  0.00    +0.096 C 
BRANCH   7   8
ATOM      8  O   LIG    1       -4.836   0.332   0.136  0.00  0.00    -0.394 OA
ATOM      9  H   LIG    1       -4.707  -0.619   0.185  0.00  0.00    +0.210 HD
ENDBRANCH   7   8
BRANCH   7  10
ATOM     10  C   LIG    1       -5.165   0.301   2.537  0.00  0.00    +0.010 C 
BRANCH  10  11
ATOM     11  C   LIG    1       -6.702   0.420   2.472  0.00  0.00    -0.080 C 
BRANCH  11  12
ATOM     12  N   LIG    1       -7.130   1.896   2.542  0.00  0.00    +0.379 N 
ATOM     13  H   LIG    1       -6.781   2.298   3.400  0.00  0.00    -0.086 HD
ATOM     14  H   LIG    1       -6.713   2.393   1.768  0.00  0.00    -0.086 HD
BRANCH  12  16
ATOM     15  C   LIG    1       -8.977   3.594   2.547  0.00  0.00    -0.017 C 
ATOM     16  C   LIG    1       -8.653   2.096   2.488  0.00  0.00    -0.086 C 
ENDBRANCH  12  16
ENDBRANCH  11  12
ENDBRANCH  10  11
ENDBRANCH   7  10
ENDBRANCH   6   7
ENDBRANCH   3   6
ENDBRANCH   2   3
ENDBRANCH   1   2
BRANCH   1  17
ATOM     17  C   LIG    1        1.498  -0.157   0.173  0.00  0.00    -0.021 C 
BRANCH  17  18
ATOM     18  C   LIG    1        2.031  -1.590   0.021  0.00  0.00    -0.083 C 
BRANCH  18  19
ATOM     19  N   LIG    1        3.564  -1.558  -0.084  0.00  0.00    +0.381 N 
ATOM     20  H   LIG    1        3.936  -1.101   0.737  0.00  0.00    -0.086 HD
ATOM     21  H   LIG    1        3.822  -1.010  -0.892  0.00  0.00    -0.086 HD
BRANCH  19  22
ATOM     22  C   LIG    1        4.201  -2.957  -0.201  0.00  0.00    -0.051 C 
BRANCH  22  23
ATOM     23  C   LIG    1        5.737  -2.871  -0.384  0.00  0.00    +0.096 C 
BRANCH  23  24
ATOM     24  O   LIG    1        6.334  -2.123   0.660  0.00  0.00    -0.394 OA
ATOM     25  H   LIG    1        6.054  -1.207   0.591  0.00  0.00    +0.210 HD
ENDBRANCH  23  24
BRANCH  23  26
ATOM     26  C   LIG    1        6.421  -4.256  -0.404  0.00  0.00    +0.010 C 
BRANCH  26  27
ATOM     27  C   LIG    1        5.956  -5.170  -1.551  0.00  0.00    -0.080 C 
BRANCH  27  28
ATOM     28  N   LIG    1        6.760  -6.481  -1.514  0.00  0.00    +0.379 N 
ATOM     29  H   LIG    1        6.586  -6.957  -0.640  0.00  0.00    -0.086 HD
ATOM     30  H   LIG    1        7.742  -6.245  -1.540  0.00  0.00    -0.086 HD
BRANCH  28  31
ATOM     31  C   LIG    1        6.480  -7.453  -2.675  0.00  0.00    -0.086 C 
ATOM     32  C   LIG    1        5.071  -8.059  -2.571  0.00  0.00    -0.017 C 
ENDBRANCH  28  31
ENDBRANCH  27  28
ENDBRANCH  26  27
ENDBRANCH  23  26
ENDBRANCH  22  23
ENDBRANCH  19  22
ENDBRANCH  18  19
ENDBRANCH  17  18
ENDBRANCH   1  17
TORSDOF 19
