REMARK  Name = DB17584
REMARK                            x       y       z     vdW  Elec       q    Type
REMARK                         _______ _______ _______ _____ _____    ______ ____
ROOT
ATOM      1  C   LIG    1        2.065   0.136  -1.152  0.00  0.00    -0.064 A 
ATOM      2  C   LIG    1        2.574  -0.448   0.009  0.00  0.00    +0.002 A 
ATOM      3  C   LIG    1        3.924  -0.310   0.323  0.00  0.00    +0.007 A 
ATOM      4  C   LIG    1        4.769   0.414  -0.524  0.00  0.00    -0.010 A 
ATOM      5  C   LIG    1        4.259   0.990  -1.690  0.00  0.00    +0.007 A 
ATOM      6  C   LIG    1        2.910   0.850  -2.005  0.00  0.00    +0.002 A 
ENDROOT
BRANCH   1   7
ATOM      7  C   LIG    1        0.597  -0.039  -1.514  0.00  0.00    -0.043 C 
BRANCH   7  11
ATOM      8  N   LIG    1       -2.639   2.621  -0.099  0.00  0.00    -0.331 N 
ATOM      9  C   LIG    1       -2.542   2.263  -1.522  0.00  0.00    +0.086 C 
ATOM     10  C   LIG    1       -1.701   0.997  -1.803  0.00  0.00    -0.059 C 
ATOM     11  N   LIG    1       -0.281   1.203  -1.237  0.00  0.00    +0.384 N 
ATOM     12  H   LIG    1        0.129   2.006  -1.693  0.00  0.00    -0.081 HD
ATOM     13  C   LIG    1       -0.389   1.503   0.274  0.00  0.00    -0.059 C 
ATOM     14  C   LIG    1       -1.292   2.741   0.482  0.00  0.00    +0.086 C 
BRANCH   8  17
ATOM     15  F   LIG    1       -4.698   4.315   0.681  0.00  0.00    -0.204 F 
ATOM     16  C   LIG    1       -4.723   3.012   1.051  0.00  0.00    +0.146 A 
ATOM     17  C   LIG    1       -3.692   2.142   0.667  0.00  0.00    +0.065 A 
ATOM     18  C   LIG    1       -3.756   0.800   1.067  0.00  0.00    +0.027 A 
ATOM     19  C   LIG    1       -4.824   0.336   1.835  0.00  0.00    +0.021 A 
ATOM     20  C   LIG    1       -5.845   1.209   2.214  0.00  0.00    +0.055 A 
ATOM     21  C   LIG    1       -5.791   2.548   1.820  0.00  0.00    +0.059 A 
BRANCH  20  22
ATOM     22  C   LIG    1       -6.961   0.726   3.015  0.00  0.00    +0.099 C 
ATOM     23  N   LIG    1       -7.848   0.342   3.651  0.00  0.00    -0.191 NA
ENDBRANCH  20  22
ENDBRANCH   8  17
ENDBRANCH   7  11
ENDBRANCH   1   7
BRANCH   4  24
ATOM     24  C   LIG    1        6.254   0.560  -0.200  0.00  0.00    +0.264 C 
BRANCH  24  25
ATOM     25  O   LIG    1        6.497   0.627   1.207  0.00  0.00    -0.487 OA
BRANCH  25  26
ATOM     26  C   LIG    1        6.185   1.776   1.910  0.00  0.00    +0.126 A 
ATOM     27  C   LIG    1        6.405   1.725   3.290  0.00  0.00    +0.024 A 
ATOM     28  C   LIG    1        6.927   0.622   4.158  0.00  0.00    +0.148 C 
ATOM     29  N   LIG    1        6.902   1.228   5.490  0.00  0.00    -0.281 N 
ATOM     30  C   LIG    1        6.445   2.503   5.513  0.00  0.00    +0.248 C 
ATOM     31  O   LIG    1        6.320   3.238   6.493  0.00  0.00    -0.270 OA
ATOM     32  C   LIG    1        6.125   2.820   4.086  0.00  0.00    +0.045 A 
ATOM     33  C   LIG    1        5.621   3.999   3.538  0.00  0.00    +0.013 A 
ATOM     34  C   LIG    1        5.397   4.064   2.162  0.00  0.00    +0.004 A 
ATOM     35  C   LIG    1        5.676   2.962   1.350  0.00  0.00    +0.046 A 
BRANCH  29  36
ATOM     36  C   LIG    1        7.332   0.506   6.703  0.00  0.00    +0.163 C 
ATOM     37  C   LIG    1        8.881   0.355   6.739  0.00  0.00    +0.240 C 
ATOM     38  O   LIG    1        9.665   1.022   6.064  0.00  0.00    -0.273 OA
ATOM     39  N   LIG    1        9.327  -0.572   7.621  0.00  0.00    -0.255 N 
ATOM     40  H   LIG    1       10.333  -0.614   7.696  0.00  0.00    +0.158 HD
ATOM     41  C   LIG    1        8.680  -1.474   8.400  0.00  0.00    +0.219 C 
ATOM     42  O   LIG    1        9.290  -2.209   9.172  0.00  0.00    -0.275 OA
ATOM     43  C   LIG    1        7.139  -1.497   8.259  0.00  0.00    +0.098 C 
ATOM     44  C   LIG    1        6.681  -0.875   6.925  0.00  0.00    +0.041 C 
ENDBRANCH  29  36
ENDBRANCH  25  26
ENDBRANCH  24  25
ENDBRANCH   4  24
TORSDOF 8
