REMARK  Name = DB17815
REMARK                            x       y       z     vdW  Elec       q    Type
REMARK                         _______ _______ _______ _____ _____    ______ ____
ROOT
ATOM      1  C   LIG    1       -0.945  -1.101  -1.142  0.00  0.00    +0.081 C 
ATOM      2  C   LIG    1       -0.353  -0.278   0.030  0.00  0.00    +0.164 C 
ATOM      3  N   LIG    1       -1.102   0.998   0.130  0.00  0.00    -0.251 N 
ATOM      4  C   LIG    1       -1.057   1.855   1.169  0.00  0.00    +0.346 A 
ATOM      5  O   LIG    1       -0.507   1.736   2.263  0.00  0.00    -0.245 OA
ATOM      6  N   LIG    1       -1.760   2.892   0.689  0.00  0.00    -0.225 N 
ATOM      7  H   LIG    1       -1.958   3.761   1.164  0.00  0.00    +0.194 HD
ATOM      8  N   LIG    1       -2.204   2.741  -0.556  0.00  0.00    -0.135 NA
ATOM      9  C   LIG    1       -1.807   1.584  -0.857  0.00  0.00    +0.229 A 
ATOM     10  N   LIG    1       -2.001   0.836  -2.080  0.00  0.00    -0.242 N 
ATOM     11  C   LIG    1       -1.654  -0.545  -2.173  0.00  0.00    +0.028 C 
ATOM     12  C   LIG    1       -2.236  -1.294  -3.383  0.00  0.00    +0.062 C 
ENDROOT
BRANCH   2  13
ATOM     13  C   LIG    1        1.162  -0.009  -0.128  0.00  0.00    -0.017 A 
ATOM     14  C   LIG    1        2.106  -0.444   0.830  0.00  0.00    -0.042 A 
ATOM     15  C   LIG    1        3.468  -0.178   0.611  0.00  0.00    +0.022 A 
ATOM     16  C   LIG    1        3.895   0.505  -0.529  0.00  0.00    +0.052 A 
ATOM     17  C   LIG    1        2.960   0.931  -1.470  0.00  0.00    +0.019 A 
ATOM     18  C   LIG    1        1.608   0.674  -1.269  0.00  0.00    +0.007 A 
BRANCH  16  19
ATOM     19  C   LIG    1        5.312   0.768  -0.738  0.00  0.00    +0.099 C 
ATOM     20  N   LIG    1        6.438   0.977  -0.903  0.00  0.00    -0.191 NA
ENDBRANCH  16  19
BRANCH  14  21
ATOM     21  C   LIG    1        1.646  -1.197   2.087  0.00  0.00    +0.017 C 
BRANCH  21  22
ATOM     22  C   LIG    1        2.750  -1.613   3.095  0.00  0.00    -0.072 C 
BRANCH  22  23
ATOM     23  N   LIG    1        2.208  -2.347   4.359  0.00  0.00    +0.375 N 
ATOM     24  C   LIG    1        1.449  -3.644   3.987  0.00  0.00    -0.093 C 
ATOM     25  C   LIG    1        1.278  -1.432   5.194  0.00  0.00    -0.093 C 
ATOM     26  C   LIG    1        3.421  -2.734   5.242  0.00  0.00    -0.093 C 
ENDBRANCH  22  23
ENDBRANCH  21  22
ENDBRANCH  14  21
ENDBRANCH   2  13
BRANCH  10  27
ATOM     27  C   LIG    1       -2.472   1.565  -3.172  0.00  0.00    +0.042 A 
ATOM     28  C   LIG    1       -1.614   1.861  -4.240  0.00  0.00    +0.036 A 
ATOM     29  C   LIG    1       -2.066   2.579  -5.354  0.00  0.00    +0.057 A 
ATOM     30  C   LIG    1       -3.399   3.003  -5.394  0.00  0.00    +0.012 A 
ATOM     31  C   LIG    1       -4.264   2.713  -4.340  0.00  0.00    +0.002 A 
ATOM     32  C   LIG    1       -3.804   1.996  -3.237  0.00  0.00    +0.024 A 
BRANCH  29  33
ATOM     33  C   LIG    1       -1.129   2.899  -6.517  0.00  0.00    +0.417 C 
ATOM     34  F   LIG    1       -0.719   4.163  -6.409  0.00  0.00    -0.166 F 
ATOM     35  F   LIG    1       -1.757   2.753  -7.685  0.00  0.00    -0.166 F 
ATOM     36  F   LIG    1       -0.053   2.109  -6.526  0.00  0.00    -0.166 F 
ENDBRANCH  29  33
ENDBRANCH  10  27
BRANCH   1  37
ATOM     37  C   LIG    1       -0.470  -2.493  -1.195  0.00  0.00    +0.339 C 
ATOM     38  O   LIG    1        0.051  -2.990  -2.197  0.00  0.00    -0.245 OA
BRANCH  37  40
ATOM     39  C   LIG    1       -0.225  -4.493   0.131  0.00  0.00    +0.280 C 
ATOM     40  O   LIG    1       -0.647  -3.145  -0.023  0.00  0.00    -0.465 OA
ENDBRANCH  37  40
ENDBRANCH   1  37
TORSDOF 9
