REMARK  Name = DB17146
REMARK                            x       y       z     vdW  Elec       q    Type
REMARK                         _______ _______ _______ _____ _____    ______ ____
ROOT
ATOM      1  N   LIG    1        1.383  -0.134   0.718  0.00  0.00    +0.385 N 
ATOM      2  H   LIG    1        1.583   0.147  -0.232  0.00  0.00    -0.081 HD
ENDROOT
BRANCH   1   4
ATOM      3  C   LIG    1       -0.648  -0.933   2.063  0.00  0.00    -0.013 C 
ATOM      4  C   LIG    1       -0.170  -0.224   0.774  0.00  0.00    -0.068 C 
BRANCH   4   5
ATOM      5  C   LIG    1       -0.698  -0.851  -0.539  0.00  0.00    +0.025 C 
BRANCH   5   6
ATOM      6  C   LIG    1       -2.217  -0.711  -0.724  0.00  0.00    +0.227 C 
BRANCH   6   7
ATOM      7  O   LIG    1       -2.566  -1.266  -1.988  0.00  0.00    -0.492 OA
BRANCH   7   8
ATOM      8  C   LIG    1       -3.896  -1.329  -2.354  0.00  0.00    +0.121 A 
ATOM      9  C   LIG    1       -4.959  -0.831  -1.583  0.00  0.00    +0.045 A 
ATOM     10  C   LIG    1       -6.274  -0.946  -2.032  0.00  0.00    +0.004 A 
ATOM     11  C   LIG    1       -6.544  -1.559  -3.254  0.00  0.00    +0.004 A 
ATOM     12  C   LIG    1       -5.499  -2.061  -4.035  0.00  0.00    -0.033 A 
ATOM     13  C   LIG    1       -4.182  -1.936  -3.580  0.00  0.00    +0.049 A 
BRANCH  12  14
ATOM     14  C   LIG    1       -5.793  -2.729  -5.379  0.00  0.00    +0.155 C 
BRANCH  14  15
ATOM     15  C   LIG    1       -6.107  -4.239  -5.252  0.00  0.00    +0.309 C 
ATOM     16  O   LIG    1       -7.030  -4.684  -5.970  0.00  0.00    -0.251 OA
BRANCH  15  17
ATOM     17  O   LIG    1       -5.411  -4.943  -4.483  0.00  0.00    -0.480 OA
ATOM     18  H   LIG    1       -5.589  -5.858  -4.396  0.00  0.00    +0.295 HD
ENDBRANCH  15  17
ENDBRANCH  14  15
ENDBRANCH  12  14
ENDBRANCH   7   8
ENDBRANCH   6   7
ENDBRANCH   5   6
ENDBRANCH   4   5
ENDBRANCH   1   4
BRANCH   1  19
ATOM     19  C   LIG    1        1.978   0.994   1.602  0.00  0.00    -0.041 C 
BRANCH  19  20
ATOM     20  C   LIG    1        1.639   2.406   1.126  0.00  0.00    -0.045 A 
ATOM     21  C   LIG    1        2.385   2.934   0.068  0.00  0.00    +0.003 A 
ATOM     22  C   LIG    1        2.121   4.210  -0.416  0.00  0.00    +0.001 A 
ATOM     23  C   LIG    1        1.109   4.974   0.156  0.00  0.00    +0.014 A 
ATOM     24  C   LIG    1        0.351   4.478   1.225  0.00  0.00    +0.073 A 
ATOM     25  C   LIG    1        0.625   3.185   1.718  0.00  0.00    +0.054 A 
ATOM     26 CL   LIG    1       -0.282   2.553   3.059  0.00  0.00    -0.083 Cl
BRANCH  24  27
ATOM     27  C   LIG    1       -0.759   5.347   1.832  0.00  0.00    +0.419 C 
ATOM     28  F   LIG    1       -0.503   5.576   3.121  0.00  0.00    -0.166 F 
ATOM     29  F   LIG    1       -1.931   4.719   1.734  0.00  0.00    -0.166 F 
ATOM     30  F   LIG    1       -0.880   6.530   1.224  0.00  0.00    -0.166 F 
ENDBRANCH  24  27
ENDBRANCH  19  20
ENDBRANCH   1  19
BRANCH   1  31
ATOM     31  C   LIG    1        2.110  -1.496   0.898  0.00  0.00    -0.065 C 
BRANCH  31  32
ATOM     32  C   LIG    1        3.515  -1.518   0.226  0.00  0.00    +0.032 C 
BRANCH  32  33
ATOM     33  C   LIG    1        4.189  -2.889   0.345  0.00  0.00    -0.042 A 
ATOM     34  C   LIG    1        3.549  -4.044  -0.122  0.00  0.00    +0.004 A 
ATOM     35  C   LIG    1        4.165  -5.286   0.002  0.00  0.00    +0.000 A 
ATOM     36  C   LIG    1        5.422  -5.376   0.594  0.00  0.00    +0.000 A 
ATOM     37  C   LIG    1        6.069  -4.235   1.063  0.00  0.00    +0.000 A 
ATOM     38  C   LIG    1        5.452  -2.993   0.939  0.00  0.00    +0.004 A 
ENDBRANCH  32  33
BRANCH  32  39
ATOM     39  C   LIG    1        3.538  -0.989  -1.216  0.00  0.00    -0.042 A 
ATOM     40  C   LIG    1        2.576  -1.396  -2.148  0.00  0.00    +0.004 A 
ATOM     41  C   LIG    1        2.595  -0.886  -3.443  0.00  0.00    +0.000 A 
ATOM     42  C   LIG    1        3.577   0.030  -3.809  0.00  0.00    +0.000 A 
ATOM     43  C   LIG    1        4.542   0.440  -2.892  0.00  0.00    +0.000 A 
ATOM     44  C   LIG    1        4.522  -0.070  -1.596  0.00  0.00    +0.004 A 
ENDBRANCH  32  39
ENDBRANCH  31  32
ENDBRANCH   1  31
TORSDOF 15
