REMARK  Name = DB17152
REMARK                            x       y       z     vdW  Elec       q    Type
REMARK                         _______ _______ _______ _____ _____    ______ ____
ROOT
ATOM      1  C   LIG    1       -2.135   5.399  -0.451  0.00  0.00    +0.188 C 
ATOM      2  C   LIG    1       -1.550   3.993  -0.270  0.00  0.00    +0.008 A 
ATOM      3  C   LIG    1       -1.707   2.944  -1.274  0.00  0.00    +0.035 A 
ATOM      4  C   LIG    1       -1.192   1.726  -1.019  0.00  0.00    +0.074 A 
ATOM      5  C   LIG    1       -1.222   0.489  -1.792  0.00  0.00    +0.096 A 
ATOM      6  N   LIG    1       -1.829   0.308  -2.991  0.00  0.00    -0.245 NA
ATOM      7  C   LIG    1       -1.796  -0.945  -3.531  0.00  0.00    +0.072 A 
ATOM      8  C   LIG    1       -2.422  -1.166  -4.782  0.00  0.00    +0.028 A 
ATOM      9  C   LIG    1       -2.413  -2.436  -5.354  0.00  0.00    +0.002 A 
ATOM     10  C   LIG    1       -1.791  -3.501  -4.708  0.00  0.00    +0.001 A 
ATOM     11  C   LIG    1       -1.166  -3.319  -3.477  0.00  0.00    +0.010 A 
ATOM     12  C   LIG    1       -1.156  -2.041  -2.868  0.00  0.00    +0.001 A 
ATOM     13  C   LIG    1       -0.531  -1.795  -1.616  0.00  0.00    +0.020 A 
ATOM     14  C   LIG    1       -0.560  -0.502  -1.097  0.00  0.00    +0.030 A 
ATOM     15  C   LIG    1        0.011   0.071   0.198  0.00  0.00    +0.256 C 
ATOM     16  N   LIG    1       -0.513   1.415   0.138  0.00  0.00    -0.276 N 
ATOM     17  C   LIG    1       -0.347   2.334   1.150  0.00  0.00    +0.261 A 
ATOM     18  O   LIG    1        0.233   2.057   2.203  0.00  0.00    -0.267 OA
ATOM     19  C   LIG    1       -0.916   3.669   0.891  0.00  0.00    +0.061 A 
ATOM     20  C   LIG    1       -0.780   4.718   1.998  0.00  0.00    +0.273 C 
ATOM     21  O   LIG    1       -0.788   6.080   1.543  0.00  0.00    -0.457 OA
ATOM     22  C   LIG    1       -1.460   6.490   0.425  0.00  0.00    +0.344 C 
ATOM     23  O   LIG    1       -1.419   7.699   0.197  0.00  0.00    -0.247 OA
ENDROOT
BRANCH   1  25
ATOM     24  C   LIG    1       -4.141   4.971   1.213  0.00  0.00    +0.007 C 
ATOM     25  C   LIG    1       -3.675   5.388  -0.197  0.00  0.00    +0.048 C 
ENDBRANCH   1  25
BRANCH   1  26
ATOM     26  O   LIG    1       -2.001   5.811  -1.805  0.00  0.00    -0.373 OA
ATOM     27  H   LIG    1       -1.067   5.837  -2.024  0.00  0.00    +0.211 HD
ENDBRANCH   1  26
BRANCH  15  28
ATOM     28  O   LIG    1        1.410   0.123   0.197  0.00  0.00    -0.350 OA
BRANCH  28  29
ATOM     29  C   LIG    1        2.096  -1.121   0.311  0.00  0.00    +0.190 C 
BRANCH  29  30
ATOM     30  C   LIG    1        3.563  -0.865   0.687  0.00  0.00    +0.184 C 
BRANCH  30  31
ATOM     31  O   LIG    1        4.258  -0.248  -0.377  0.00  0.00    -0.393 OA
ATOM     32  H   LIG    1        5.160  -0.076  -0.096  0.00  0.00    +0.209 HD
ENDBRANCH  30  31
ENDBRANCH  29  30
ENDBRANCH  28  29
ENDBRANCH  15  28
TORSDOF 6
