REMARK  Name = DB17414
REMARK                            x       y       z     vdW  Elec       q    Type
REMARK                         _______ _______ _______ _____ _____    ______ ____
ROOT
ATOM      1  C   LIG    1       -0.415   1.538   0.012  0.00  0.00    +0.177 C 
ATOM      2  C   LIG    1       -0.064   2.362  -1.244  0.00  0.00    +0.254 C 
ATOM      3  O   LIG    1       -0.271   2.040  -2.414  0.00  0.00    -0.272 OA
ATOM      4  N   LIG    1        0.504   3.500  -0.801  0.00  0.00    -0.281 N 
ATOM      5  H   LIG    1        0.834   4.226  -1.420  0.00  0.00    +0.155 HD
ATOM      6  C   LIG    1        0.587   3.572   0.584  0.00  0.00    +0.060 A 
ATOM      7  C   LIG    1        1.112   4.588   1.385  0.00  0.00    +0.063 A 
ATOM      8 CL   LIG    1        1.788   6.018   0.690  0.00  0.00    -0.082 Cl
ATOM      9  C   LIG    1        1.087   4.434   2.773  0.00  0.00    +0.023 A 
ATOM     10  C   LIG    1        0.542   3.281   3.344  0.00  0.00    +0.022 A 
ATOM     11  C   LIG    1        0.018   2.272   2.531  0.00  0.00    +0.049 A 
ATOM     12 CL   LIG    1       -0.653   0.858   3.263  0.00  0.00    -0.083 Cl
ATOM     13  C   LIG    1        0.045   2.424   1.140  0.00  0.00    +0.034 A 
ENDROOT
BRANCH   1  14
ATOM     14  O   LIG    1       -1.813   1.314   0.043  0.00  0.00    -0.374 OA
ATOM     15  H   LIG    1       -2.237   2.099   0.398  0.00  0.00    +0.211 HD
ENDBRANCH   1  14
BRANCH   1  16
ATOM     16  C   LIG    1        0.206   0.104  -0.039  0.00  0.00    +0.129 C 
BRANCH  16  17
ATOM     17  C   LIG    1        1.747  -0.057  -0.053  0.00  0.00    +0.167 C 
ATOM     18  O   LIG    1        2.470   0.941  -0.043  0.00  0.00    -0.292 OA
BRANCH  17  22
ATOM     19  C   LIG    1        3.381  -4.037  -0.071  0.00  0.00    -0.044 A 
ATOM     20  C   LIG    1        4.225  -2.928  -0.040  0.00  0.00    +0.004 A 
ATOM     21  C   LIG    1        3.687  -1.645  -0.036  0.00  0.00    +0.011 A 
ATOM     22  C   LIG    1        2.297  -1.454  -0.060  0.00  0.00    +0.018 A 
ATOM     23  C   LIG    1        1.458  -2.579  -0.087  0.00  0.00    +0.011 A 
ATOM     24  C   LIG    1        1.998  -3.862  -0.092  0.00  0.00    +0.004 A 
BRANCH  19  26
ATOM     25  C   LIG    1        5.014  -5.872  -1.069  0.00  0.00    +0.009 C 
ATOM     26  C   LIG    1        3.969  -5.437  -0.067  0.00  0.00    +0.019 C 
ATOM     27  C   LIG    1        3.622  -6.458  -1.128  0.00  0.00    +0.009 C 
ENDBRANCH  19  26
ENDBRANCH  17  22
ENDBRANCH  16  17
ENDBRANCH   1  16
TORSDOF 5
