REMARK  Name = DB17627
REMARK                            x       y       z     vdW  Elec       q    Type
REMARK                         _______ _______ _______ _____ _____    ______ ____
ROOT
ATOM      1  C   LIG    1        1.470  -0.064  -0.009  0.00  0.00    +0.043 C 
ATOM      2  C   LIG    1        1.967   0.592  -1.291  0.00  0.00    +0.223 C 
ATOM      3  O   LIG    1        1.567   1.626  -1.827  0.00  0.00    -0.275 OA
ATOM      4  N   LIG    1        2.949  -0.227  -1.702  0.00  0.00    -0.196 N 
ATOM      5  H   LIG    1        3.621  -0.282  -2.453  0.00  0.00    +0.182 HD
ATOM      6  O   LIG    1        3.271  -1.210  -0.761  0.00  0.00    -0.281 OA
ATOM      7  C   LIG    1        2.079  -1.454  -0.040  0.00  0.00    +0.183 C 
ENDROOT
BRANCH   1   8
ATOM      8  N   LIG    1       -0.061   0.069   0.044  0.00  0.00    +0.387 N 
ATOM      9  H   LIG    1       -0.483  -0.403  -0.744  0.00  0.00    -0.089 HD
ATOM     10  H   LIG    1       -0.416  -0.345   0.894  0.00  0.00    -0.089 HD
ATOM     11  H   LIG    1       -0.327   1.044   0.027  0.00  0.00    -0.089 HD
ENDBRANCH   1   8
TORSDOF 1
