REMARK  Name = DB17118
REMARK                            x       y       z     vdW  Elec       q    Type
REMARK                         _______ _______ _______ _____ _____    ______ ____
ROOT
ATOM      1  C   LIG    1        1.105   0.096   0.945  0.00  0.00    +0.047 C 
ATOM      2  C   LIG    1        1.726  -1.012   0.468  0.00  0.00    -0.015 C 
ENDROOT
BRANCH   1   5
ATOM      3  N   LIG    1       -1.099  -0.561   0.377  0.00  0.00    -0.312 N 
ATOM      4  H   LIG    1       -0.666  -0.970  -0.439  0.00  0.00    +0.149 HD
ATOM      5  C   LIG    1       -0.313   0.075   1.269  0.00  0.00    +0.243 C 
ATOM      6  O   LIG    1       -0.764   0.621   2.279  0.00  0.00    -0.270 OA
BRANCH   3   7
ATOM      7  C   LIG    1       -2.550  -0.703   0.484  0.00  0.00    +0.102 C 
BRANCH   7   8
ATOM      8  C   LIG    1       -2.997  -1.728   1.543  0.00  0.00    +0.000 C 
BRANCH   8   9
ATOM      9  C   LIG    1       -4.527  -1.900   1.584  0.00  0.00    -0.078 C 
BRANCH   9  11
ATOM     10  C   LIG    1       -4.464  -4.236   2.691  0.00  0.00    -0.097 C 
ATOM     11  N   LIG    1       -4.966  -2.779   2.778  0.00  0.00    +0.376 N 
ATOM     12  H   LIG    1       -4.564  -2.371   3.611  0.00  0.00    -0.083 HD
ATOM     13  C   LIG    1       -6.497  -2.743   2.959  0.00  0.00    -0.097 C 
ENDBRANCH   9  11
ENDBRANCH   8   9
ENDBRANCH   7   8
ENDBRANCH   3   7
ENDBRANCH   1   5
BRANCH   2  14
ATOM     14  C   LIG    1        3.188  -1.143   0.067  0.00  0.00    +0.028 C 
BRANCH  14  15
ATOM     15  C   LIG    1        4.060  -1.885   1.096  0.00  0.00    +0.005 C 
BRANCH  15  16
ATOM     16  C   LIG    1        4.244  -1.117   2.419  0.00  0.00    +0.010 C 
BRANCH  16  17
ATOM     17  C   LIG    1        5.130  -1.873   3.432  0.00  0.00    +0.098 C 
BRANCH  17  18
ATOM     18  C   LIG    1        5.312  -1.148   4.775  0.00  0.00    +0.235 C 
ATOM     19  N   LIG    1        5.654  -1.927   5.816  0.00  0.00    -0.197 N 
ATOM     20  H   LIG    1        5.575  -2.934   5.847  0.00  0.00    +0.182 HD
ATOM     21  O   LIG    1        5.154   0.074   4.856  0.00  0.00    -0.274 OA
BRANCH  19  22
ATOM     22  O   LIG    1        5.662  -1.346   7.088  0.00  0.00    -0.295 OA
ATOM     23  H   LIG    1        5.125  -0.558   6.971  0.00  0.00    +0.241 HD
ENDBRANCH  19  22
ENDBRANCH  17  18
ENDBRANCH  16  17
ENDBRANCH  15  16
ENDBRANCH  14  15
ENDBRANCH   2  14
BRANCH   1  24
ATOM     24  C   LIG    1        1.789   1.438   1.223  0.00  0.00    +0.269 C 
BRANCH  24  25
ATOM     25  O   LIG    1        1.296   2.436   0.331  0.00  0.00    -0.487 OA
BRANCH  25  26
ATOM     26  C   LIG    1        1.733   3.744   0.448  0.00  0.00    +0.129 A 
ATOM     27  C   LIG    1        2.672   4.165   1.403  0.00  0.00    +0.046 A 
ATOM     28  C   LIG    1        3.078   5.491   1.482  0.00  0.00    +0.004 A 
ATOM     29  C   LIG    1        2.563   6.442   0.610  0.00  0.00    +0.009 A 
ATOM     30  C   LIG    1        1.616   6.071  -0.373  0.00  0.00    -0.014 A 
ATOM     31  C   LIG    1        1.078   7.024  -1.274  0.00  0.00    +0.008 A 
ATOM     32  C   LIG    1        0.147   6.639  -2.234  0.00  0.00    +0.001 A 
ATOM     33  C   LIG    1       -0.268   5.316  -2.323  0.00  0.00    +0.001 A 
ATOM     34  C   LIG    1        0.240   4.356  -1.453  0.00  0.00    +0.012 A 
ATOM     35  C   LIG    1        1.194   4.707  -0.457  0.00  0.00    +0.024 A 
ENDBRANCH  25  26
ENDBRANCH  24  25
ENDBRANCH   1  24
TORSDOF 14
