REMARK  Name = DB17120
REMARK                            x       y       z     vdW  Elec       q    Type
REMARK                         _______ _______ _______ _____ _____    ______ ____
ROOT
ATOM      1  C   LIG    1        1.482  -0.036   0.010  0.00  0.00    -0.058 C 
ATOM      2  C   LIG    1        2.000   0.627  -1.303  0.00  0.00    +0.036 C 
ATOM      3  C   LIG    1        3.542   0.746  -1.271  0.00  0.00    +0.017 C 
ATOM      4  C   LIG    1        4.051   1.469  -0.008  0.00  0.00    +0.001 C 
ATOM      5  C   LIG    1        3.535   0.808   1.285  0.00  0.00    -0.001 C 
ATOM      6  C   LIG    1        2.001   0.672   1.286  0.00  0.00    -0.015 C 
ENDROOT
BRANCH   1   7
ATOM      7  N   LIG    1       -0.058  -0.014   0.040  0.00  0.00    +0.381 N 
ATOM      8  H   LIG    1       -0.424  -0.481  -0.777  0.00  0.00    -0.090 HD
ATOM      9  H   LIG    1       -0.400  -0.482   0.867  0.00  0.00    -0.090 HD
ATOM     10  H   LIG    1       -0.391   0.940   0.043  0.00  0.00    -0.090 HD
ENDBRANCH   1   7
BRANCH   2  11
ATOM     11  N   LIG    1        1.536   0.003  -2.533  0.00  0.00    -0.329 NA
ATOM     12  H   LIG    1        1.917  -0.930  -2.607  0.00  0.00    +0.118 HD
ATOM     13  H   LIG    1        1.890   0.515  -3.329  0.00  0.00    +0.118 HD
ENDBRANCH   2  11
TORSDOF 2
