REMARK  Name = DB17733
REMARK                            x       y       z     vdW  Elec       q    Type
REMARK                         _______ _______ _______ _____ _____    ______ ____
ROOT
ATOM      1  C   LIG    1       -1.292   3.146  -0.354  0.00  0.00    +0.195 A 
ATOM      2  N   LIG    1       -2.636   2.814  -0.281  0.00  0.00    -0.293 N 
ATOM      3  H   LIG    1       -3.307   3.546  -0.463  0.00  0.00    +0.172 HD
ATOM      4  C   LIG    1       -3.185   1.589   0.013  0.00  0.00    +0.280 A 
ATOM      5  O   LIG    1       -4.400   1.401   0.051  0.00  0.00    -0.265 OA
ATOM      6  C   LIG    1       -2.117   0.639   0.249  0.00  0.00    +0.172 A 
ATOM      7  N   LIG    1       -2.209  -0.664   0.560  0.00  0.00    -0.229 NA
ATOM      8  C   LIG    1       -0.962  -1.061   0.660  0.00  0.00    +0.202 A 
ATOM      9  N   LIG    1       -0.071  -0.072   0.428  0.00  0.00    -0.308 N 
ATOM     10  C   LIG    1       -0.813   1.043   0.160  0.00  0.00    +0.170 A 
ATOM     11  N   LIG    1       -0.346   2.291  -0.141  0.00  0.00    -0.196 NA
ENDROOT
BRANCH   9  12
ATOM     12  C   LIG    1        1.404  -0.161   0.456  0.00  0.00    +0.113 C 
ATOM     13  C   LIG    1        1.962  -1.296   1.295  0.00  0.00    -0.006 C 
ATOM     14  C   LIG    1        3.008  -1.882   0.686  0.00  0.00    -0.023 C 
ATOM     15  C   LIG    1        3.266  -1.287  -0.689  0.00  0.00    +0.039 C 
ATOM     16  C   LIG    1        2.006  -0.445  -0.920  0.00  0.00    +0.039 C 
BRANCH  15  17
ATOM     17  C   LIG    1        3.490  -2.354  -1.782  0.00  0.00    +0.163 C 
BRANCH  17  18
ATOM     18  O   LIG    1        4.685  -3.074  -1.558  0.00  0.00    -0.394 OA
ATOM     19  H   LIG    1        4.794  -3.713  -2.266  0.00  0.00    +0.209 HD
ENDBRANCH  17  18
ENDBRANCH  15  17
ENDBRANCH   9  12
BRANCH   1  20
ATOM     20  N   LIG    1       -1.016   4.420  -0.663  0.00  0.00    -0.329 N 
ATOM     21  H   LIG    1       -1.758   5.083  -0.835  0.00  0.00    +0.145 HD
ATOM     22  H   LIG    1       -0.057   4.730  -0.730  0.00  0.00    +0.145 HD
ENDBRANCH   1  20
TORSDOF 4
