REMARK  Name = DB17103
REMARK                            x       y       z     vdW  Elec       q    Type
REMARK                         _______ _______ _______ _____ _____    ______ ____
ROOT
ATOM      1  C   LIG    1       -2.171  -0.289   1.115  0.00  0.00    +0.282 C 
ATOM      2  C   LIG    1       -0.643  -0.337   0.895  0.00  0.00    +0.208 C 
ATOM      3  C   LIG    1       -0.300   0.413  -0.415  0.00  0.00    +0.186 C 
ATOM      4  C   LIG    1       -1.134  -0.113  -1.599  0.00  0.00    +0.177 C 
ATOM      5  C   LIG    1       -2.636  -0.087  -1.213  0.00  0.00    +0.178 C 
ATOM      6  O   LIG    1       -2.823  -0.837  -0.006  0.00  0.00    -0.341 OA
ENDROOT
BRANCH   4   7
ATOM      7  O   LIG    1       -0.716  -1.407  -2.003  0.00  0.00    -0.386 OA
ATOM      8  H   LIG    1        0.203  -1.356  -2.276  0.00  0.00    +0.210 HD
ENDBRANCH   4   7
BRANCH   1   9
ATOM      9  O   LIG    1       -2.466  -1.062   2.239  0.00  0.00    -0.345 OA
BRANCH   9  33
ATOM     10  C   LIG    1       -9.734   0.557   9.495  0.00  0.00    +0.121 C 
ATOM     11  O   LIG    1      -10.552  -0.297  10.292  0.00  0.00    -0.388 OA
ATOM     12  C   LIG    1      -11.928   0.006  10.036  0.00  0.00    +0.040 C 
ATOM     13  N   LIG    1      -12.311   1.244  10.893  0.00  0.00    +0.399 N 
ATOM     14  H   LIG    1      -13.241   1.540  10.634  0.00  0.00    -0.082 HD
ATOM     15  H   LIG    1      -11.686   2.004  10.665  0.00  0.00    -0.082 HD
ATOM     16  C   LIG    1      -12.271   0.989  12.413  0.00  0.00    -0.075 C 
ATOM     17  C   LIG    1      -13.194  -0.199  12.769  0.00  0.00    -0.031 C 
ATOM     18  C   LIG    1      -13.213  -0.453  14.286  0.00  0.00    +0.005 C 
ATOM     19  C   LIG    1      -12.769  -1.458  11.983  0.00  0.00    +0.002 C 
ATOM     20  C   LIG    1      -12.795  -1.208  10.464  0.00  0.00    +0.016 C 
ATOM     21  C   LIG    1      -11.963   0.311   8.513  0.00  0.00    +0.006 C 
ATOM     22  C   LIG    1      -12.984   1.362   8.025  0.00  0.00    +0.009 C 
ATOM     23  C   LIG    1      -10.505   0.661   8.168  0.00  0.00    +0.028 C 
ATOM     24  C   LIG    1       -9.719  -0.255   7.175  0.00  0.00    -0.023 C 
ATOM     25  C   LIG    1      -10.080  -1.769   7.332  0.00  0.00    +0.012 C 
ATOM     26  C   LIG    1       -9.814   0.186   5.693  0.00  0.00    +0.007 C 
ATOM     27  C   LIG    1       -8.789  -0.572   4.815  0.00  0.00    +0.005 C 
ATOM     28  C   LIG    1       -7.313  -0.431   5.324  0.00  0.00    +0.003 C 
ATOM     29  C   LIG    1       -6.253  -1.225   4.464  0.00  0.00    -0.008 C 
ATOM     30  C   LIG    1       -6.616  -2.732   4.350  0.00  0.00    +0.016 C 
ATOM     31  C   LIG    1       -6.174  -0.583   3.037  0.00  0.00    +0.014 C 
ATOM     32  C   LIG    1       -4.963  -1.007   2.184  0.00  0.00    +0.033 C 
ATOM     33  C   LIG    1       -3.658  -0.736   2.955  0.00  0.00    +0.125 C 
ATOM     34  C   LIG    1       -3.658  -1.528   4.273  0.00  0.00    +0.062 C 
ATOM     35  C   LIG    1       -4.855  -1.119   5.136  0.00  0.00    -0.065 C 
ATOM     36  C   LIG    1       -4.680  -0.709   6.410  0.00  0.00    -0.027 C 
ATOM     37  C   LIG    1       -5.777  -0.332   7.389  0.00  0.00    +0.031 C 
ATOM     38  C   LIG    1       -7.183  -0.704   6.860  0.00  0.00    +0.000 C 
ATOM     39  C   LIG    1       -8.280   0.076   7.638  0.00  0.00    +0.001 C 
ATOM     40  C   LIG    1       -8.337  -0.004   9.168  0.00  0.00    +0.036 C 
ENDBRANCH   9  33
ENDBRANCH   1   9
BRANCH   2  41
ATOM     41  O   LIG    1        0.114   0.275   1.941  0.00  0.00    -0.338 OA
BRANCH  41  42
ATOM     42  C   LIG    1        0.275  -0.402   3.155  0.00  0.00    +0.282 C 
ATOM     43  C   LIG    1        1.708  -0.144   3.647  0.00  0.00    +0.201 C 
ATOM     44  C   LIG    1        1.898   1.346   4.017  0.00  0.00    +0.179 C 
ATOM     45  C   LIG    1        0.801   1.811   4.996  0.00  0.00    +0.174 C 
ATOM     46  C   LIG    1       -0.598   1.422   4.453  0.00  0.00    +0.149 C 
ATOM     47  C   LIG    1       -1.726   1.704   5.461  0.00  0.00    +0.041 C 
ATOM     48  O   LIG    1       -0.659   0.028   4.118  0.00  0.00    -0.343 OA
BRANCH  43  49
ATOM     49  O   LIG    1        2.037  -1.020   4.712  0.00  0.00    -0.384 OA
ATOM     50  H   LIG    1        2.834  -0.692   5.136  0.00  0.00    +0.210 HD
ENDBRANCH  43  49
BRANCH  44  51
ATOM     51  O   LIG    1        3.206   1.607   4.499  0.00  0.00    -0.386 OA
ATOM     52  H   LIG    1        3.197   2.458   4.944  0.00  0.00    +0.210 HD
ENDBRANCH  44  51
BRANCH  45  53
ATOM     53  O   LIG    1        0.894   3.205   5.241  0.00  0.00    -0.387 OA
ATOM     54  H   LIG    1        0.331   3.421   5.989  0.00  0.00    +0.210 HD
ENDBRANCH  45  53
ENDBRANCH  41  42
ENDBRANCH   2  41
BRANCH   3  55
ATOM     55  O   LIG    1        1.094   0.330  -0.732  0.00  0.00    -0.340 OA
BRANCH  55  56
ATOM     56  C   LIG    1        1.889   1.407  -0.331  0.00  0.00    +0.282 C 
ATOM     57  C   LIG    1        3.358   0.981  -0.476  0.00  0.00    +0.201 C 
ATOM     58  C   LIG    1        4.286   2.169  -0.119  0.00  0.00    +0.179 C 
ATOM     59  C   LIG    1        3.877   3.455  -0.870  0.00  0.00    +0.177 C 
ATOM     60  C   LIG    1        2.348   3.693  -0.760  0.00  0.00    +0.178 C 
ATOM     61  O   LIG    1        1.642   2.513  -1.161  0.00  0.00    -0.341 OA
BRANCH  57  62
ATOM     62  O   LIG    1        3.646  -0.151   0.326  0.00  0.00    -0.384 OA
ATOM     63  H   LIG    1        4.600  -0.223   0.413  0.00  0.00    +0.210 HD
ENDBRANCH  57  62
BRANCH  58  64
ATOM     64  O   LIG    1        5.647   1.845  -0.349  0.00  0.00    -0.386 OA
ATOM     65  H   LIG    1        6.150   2.662  -0.394  0.00  0.00    +0.210 HD
ENDBRANCH  58  64
BRANCH  59  66
ATOM     66  O   LIG    1        4.612   4.575  -0.405  0.00  0.00    -0.386 OA
ATOM     67  H   LIG    1        4.465   4.668   0.540  0.00  0.00    +0.210 HD
ENDBRANCH  59  66
BRANCH  60  68
ATOM     68  C   LIG    1        1.825   4.886  -1.591  0.00  0.00    +0.190 C 
BRANCH  68  69
ATOM     69  O   LIG    1        2.107   4.745  -2.970  0.00  0.00    -0.392 OA
ATOM     70  H   LIG    1        1.763   5.513  -3.432  0.00  0.00    +0.210 HD
ENDBRANCH  68  69
ENDBRANCH  60  68
ENDBRANCH  55  56
ENDBRANCH   3  55
BRANCH   5  71
ATOM     71  C   LIG    1       -3.590  -0.649  -2.289  0.00  0.00    +0.190 C 
BRANCH  71  72
ATOM     72  O   LIG    1       -3.535   0.118  -3.476  0.00  0.00    -0.392 OA
ATOM     73  H   LIG    1       -2.703  -0.065  -3.919  0.00  0.00    +0.210 HD
ENDBRANCH  71  72
ENDBRANCH   5  71
TORSDOF 17
