REMARK  Name = DB17131
REMARK                            x       y       z     vdW  Elec       q    Type
REMARK                         _______ _______ _______ _____ _____    ______ ____
ROOT
ATOM      1  C   LIG    1        1.678   0.099  -0.546  0.00  0.00    +0.141 A 
ATOM      2  C   LIG    1        2.411   0.755  -1.548  0.00  0.00    +0.151 A 
ATOM      3  N   LIG    1        3.767   0.716  -1.551  0.00  0.00    -0.214 NA
ATOM      4  C   LIG    1        4.417   0.013  -0.577  0.00  0.00    +0.142 A 
ATOM      5  C   LIG    1        3.662  -0.633   0.418  0.00  0.00    +0.155 A 
ATOM      6  N   LIG    1        2.305  -0.605   0.431  0.00  0.00    -0.242 NA
ENDROOT
BRANCH   4   7
ATOM      7  N   LIG    1        5.818   0.026  -0.588  0.00  0.00    -0.314 N 
ATOM      8  C   LIG    1        6.583  -0.774   0.402  0.00  0.00    +0.107 C 
ATOM      9  C   LIG    1        8.098  -0.475   0.458  0.00  0.00    +0.026 C 
ATOM     10  C   LIG    1        8.743  -0.638  -0.928  0.00  0.00    -0.014 C 
ATOM     11  C   LIG    1       10.283  -0.583  -0.905  0.00  0.00    -0.040 C 
ATOM     12  C   LIG    1       10.730  -1.460  -2.086  0.00  0.00    +0.144 C 
ATOM     13  O   LIG    1        9.549  -2.100  -2.560  0.00  0.00    -0.381 OA
ATOM     14  C   LIG    1        8.547  -2.034  -1.556  0.00  0.00    +0.165 C 
ATOM     15  C   LIG    1        8.069   0.500  -1.729  0.00  0.00    +0.026 C 
ATOM     16  C   LIG    1        6.543   0.288  -1.861  0.00  0.00    +0.107 C 
BRANCH  11  17
ATOM     17  N   LIG    1       10.963   0.790  -0.778  0.00  0.00    +0.382 N 
ATOM     18  H   LIG    1       10.650   1.258   0.060  0.00  0.00    -0.090 HD
ATOM     19  H   LIG    1       11.967   0.680  -0.735  0.00  0.00    -0.090 HD
ATOM     20  H   LIG    1       10.734   1.366  -1.576  0.00  0.00    -0.090 HD
ENDBRANCH  11  17
ENDBRANCH   4   7
BRANCH   2  21
ATOM     21  N   LIG    1        1.807   1.468  -2.585  0.00  0.00    -0.341 N 
ATOM     22  H   LIG    1        2.407   1.783  -3.334  0.00  0.00    +0.144 HD
ATOM     23  H   LIG    1        0.839   1.261  -2.782  0.00  0.00    +0.144 HD
ENDBRANCH   2  21
BRANCH   1  24
ATOM     24  S   LIG    1       -0.096   0.107  -0.488  0.00  0.00    -0.066 S 
BRANCH  24  32
ATOM     25  C   LIG    1        0.116   6.592   2.240  0.00  0.00    +0.109 C 
ATOM     26  C   LIG    1        0.121   5.329   3.105  0.00  0.00    +0.217 C 
ATOM     27  N   LIG    1       -0.095   4.111   2.540  0.00  0.00    -0.265 N 
ATOM     28  C   LIG    1       -0.420   3.765   1.212  0.00  0.00    +0.046 A 
ATOM     29  C   LIG    1       -1.111   4.495   0.234  0.00  0.00    +0.024 A 
ATOM     30  C   LIG    1       -1.440   3.893  -0.981  0.00  0.00    +0.003 A 
ATOM     31  C   LIG    1       -1.119   2.557  -1.213  0.00  0.00    +0.016 A 
ATOM     32  C   LIG    1       -0.470   1.819  -0.223  0.00  0.00    +0.025 A 
ATOM     33  C   LIG    1       -0.131   2.413   1.002  0.00  0.00    +0.057 A 
ATOM     34  C   LIG    1        0.510   1.853   2.245  0.00  0.00    +0.292 C 
ATOM     35  F   LIG    1        0.065   0.661   2.644  0.00  0.00    -0.198 F 
ATOM     36  F   LIG    1        1.841   1.805   2.163  0.00  0.00    -0.198 F 
ATOM     37  C   LIG    1        0.148   2.884   3.308  0.00  0.00    +0.194 C 
ATOM     38  O   LIG    1        0.344   5.470   4.309  0.00  0.00    -0.276 OA
ENDBRANCH  24  32
ENDBRANCH   1  24
TORSDOF 5
