REMARK  Name = DB17036
REMARK                            x       y       z     vdW  Elec       q    Type
REMARK                         _______ _______ _______ _____ _____    ______ ____
ROOT
ATOM      1  C   LIG    1        5.034  -3.616   0.139  0.00  0.00    +0.096 C 
ENDROOT
BRANCH   1   2
ATOM      2  C   LIG    1        5.285  -5.129   0.051  0.00  0.00    +0.213 C 
ATOM      3  N   LIG    1        6.158  -5.535  -0.888  0.00  0.00    -0.315 N 
ATOM      4  H   LIG    1        6.605  -4.840  -1.468  0.00  0.00    +0.149 HD
ATOM      5  O   LIG    1        4.709  -5.901   0.820  0.00  0.00    -0.276 OA
BRANCH   3   6
ATOM      6  C   LIG    1        6.523  -6.926  -1.145  0.00  0.00    +0.109 C 
BRANCH   6   7
ATOM      7  C   LIG    1        5.448  -7.728  -1.906  0.00  0.00    +0.054 C 
BRANCH   7   8
ATOM      8  C   LIG    1        5.939  -9.096  -2.355  0.00  0.00    -0.042 A 
ATOM      9  C   LIG    1        6.537  -9.253  -3.610  0.00  0.00    +0.052 A 
ATOM     10  C   LIG    1        6.992 -10.507  -4.024  0.00  0.00    +0.158 A 
ATOM     11  C   LIG    1        6.848 -11.615  -3.178  0.00  0.00    +0.158 A 
ATOM     12  C   LIG    1        6.252 -11.459  -1.926  0.00  0.00    +0.049 A 
ATOM     13  C   LIG    1        5.799 -10.205  -1.515  0.00  0.00    +0.007 A 
BRANCH  10  14
ATOM     14  O   LIG    1        7.577 -10.632  -5.259  0.00  0.00    -0.503 OA
ATOM     15  H   LIG    1        7.618  -9.802  -5.739  0.00  0.00    +0.292 HD
ENDBRANCH  10  14
BRANCH  11  16
ATOM     16  O   LIG    1        7.287 -12.857  -3.561  0.00  0.00    -0.503 OA
ATOM     17  H   LIG    1        7.689 -12.852  -4.433  0.00  0.00    +0.292 HD
ENDBRANCH  11  16
ENDBRANCH   7   8
ENDBRANCH   6   7
ENDBRANCH   3   6
ENDBRANCH   1   2
BRANCH   1  18
ATOM     18  C   LIG    1        3.545  -3.255   0.331  0.00  0.00    +0.009 C 
BRANCH  18  19
ATOM     19  C   LIG    1        3.288  -1.738   0.282  0.00  0.00    +0.000 C 
BRANCH  19  20
ATOM     20  C   LIG    1        1.797  -1.382   0.419  0.00  0.00    +0.000 C 
BRANCH  20  21
ATOM     21  C   LIG    1        1.522   0.128   0.295  0.00  0.00    +0.000 C 
BRANCH  21  22
ATOM     22  C   LIG    1        0.022   0.464   0.350  0.00  0.00    +0.004 C 
BRANCH  22  23
ATOM     23  C   LIG    1       -0.271   1.959   0.140  0.00  0.00    +0.027 C 
BRANCH  23  25
ATOM     24  C   LIG    1       -2.526   2.384  -1.005  0.00  0.00    -0.031 C 
ATOM     25  C   LIG    1       -1.758   2.269   0.096  0.00  0.00    -0.031 C 
BRANCH  24  26
ATOM     26  C   LIG    1       -2.088   2.193  -2.451  0.00  0.00    +0.027 C 
BRANCH  26  27
ATOM     27  C   LIG    1       -2.066   3.488  -3.288  0.00  0.00    +0.004 C 
BRANCH  27  28
ATOM     28  C   LIG    1       -3.436   4.168  -3.494  0.00  0.00    +0.000 C 
BRANCH  28  29
ATOM     29  C   LIG    1       -4.450   3.316  -4.282  0.00  0.00    +0.000 C 
BRANCH  29  30
ATOM     30  C   LIG    1       -5.766   4.058  -4.574  0.00  0.00    -0.000 C 
BRANCH  30  31
ATOM     31  C   LIG    1       -6.774   3.197  -5.356  0.00  0.00    -0.000 C 
BRANCH  31  33
ATOM     32  C   LIG    1       -9.098   3.066  -6.425  0.00  0.00    +0.004 C 
ATOM     33  C   LIG    1       -8.092   3.933  -5.654  0.00  0.00    -0.003 C 
ENDBRANCH  31  33
ENDBRANCH  30  31
ENDBRANCH  29  30
ENDBRANCH  28  29
ENDBRANCH  27  28
ENDBRANCH  26  27
ENDBRANCH  24  26
ENDBRANCH  23  25
ENDBRANCH  22  23
ENDBRANCH  21  22
ENDBRANCH  20  21
ENDBRANCH  19  20
ENDBRANCH  18  19
ENDBRANCH   1  18
TORSDOF 20
