REMARK  Name = DB17977
REMARK                            x       y       z     vdW  Elec       q    Type
REMARK                         _______ _______ _______ _____ _____    ______ ____
ROOT
ATOM      1  C   LIG    1        1.599   0.313   0.146  0.00  0.00    +0.103 C 
ATOM      2  C   LIG    1        2.176   0.796   1.519  0.00  0.00    +0.031 C 
ATOM      3  C   LIG    1        3.596   0.353   1.934  0.00  0.00    +0.007 C 
ATOM      4  C   LIG    1        3.086   0.367   3.386  0.00  0.00    +0.006 C 
ATOM      5  C   LIG    1        1.673   0.136   2.814  0.00  0.00    +0.012 C 
ATOM      6  C   LIG    1        0.496   0.834   3.536  0.00  0.00    +0.109 C 
ATOM      7  N   LIG    1        0.262   0.359   4.906  0.00  0.00    -0.326 N 
ATOM      8  C   LIG    1       -0.420  -0.852   5.189  0.00  0.00    +0.073 A 
ATOM      9  C   LIG    1       -0.882  -1.690   4.153  0.00  0.00    +0.040 A 
ATOM     10  C   LIG    1       -1.544  -2.911   4.387  0.00  0.00    +0.040 A 
ATOM     11  C   LIG    1       -1.774  -3.276   5.718  0.00  0.00    +0.017 A 
ATOM     12  C   LIG    1       -1.374  -2.455   6.762  0.00  0.00    +0.048 A 
ATOM     13  C   LIG    1       -2.001  -3.844   3.269  0.00  0.00    +0.263 C 
ATOM     14  O   LIG    1       -2.577  -4.889   3.585  0.00  0.00    -0.269 OA
ATOM     15  N   LIG    1       -1.679  -3.475   2.048  0.00  0.00    -0.186 N 
ATOM     16  H   LIG    1       -1.290  -2.580   1.915  0.00  0.00    +0.176 HD
ATOM     17  S   LIG    1       -1.885  -4.401   0.785  0.00  0.00    +0.048 S 
ATOM     18  O   LIG    1       -2.982  -5.371   0.903  0.00  0.00    -0.155 OA
ATOM     19  O   LIG    1       -1.906  -3.616  -0.454  0.00  0.00    -0.155 OA
ATOM     20  C   LIG    1       -0.274  -5.451   0.695  0.00  0.00    +0.151 C 
ATOM     21  C   LIG    1       -0.341  -6.561   1.770  0.00  0.00    +0.034 C 
ATOM     22  C   LIG    1        1.021  -4.571   0.772  0.00  0.00    +0.015 C 
ATOM     23  C   LIG    1        2.306  -5.415   0.948  0.00  0.00    +0.010 C 
ATOM     24  C   LIG    1        1.191  -3.613  -0.442  0.00  0.00    +0.032 C 
ATOM     25  C   LIG    1        0.892  -2.151  -0.154  0.00  0.00    -0.028 C 
ATOM     26  C   LIG    1       -0.721  -1.249   6.521  0.00  0.00    +0.141 A 
ATOM     27  O   LIG    1       -0.458  -0.492   7.644  0.00  0.00    -0.489 OA
ATOM     28  C   LIG    1       -0.872   0.871   7.626  0.00  0.00    +0.242 C 
ATOM     29  C   LIG    1        0.206   1.804   7.011  0.00  0.00    +0.046 C 
ATOM     30  C   LIG    1        1.195   2.294   8.105  0.00  0.00    -0.033 A 
ATOM     31  C   LIG    1        1.792   1.368   8.980  0.00  0.00    +0.006 A 
ATOM     32  C   LIG    1        2.737   1.749   9.927  0.00  0.00    +0.020 A 
ATOM     33  C   LIG    1        3.121   3.079  10.018  0.00  0.00    +0.041 A 
ATOM     34 CL   LIG    1        4.297   3.566  11.184  0.00  0.00    -0.084 Cl
ATOM     35  C   LIG    1        2.549   4.019   9.166  0.00  0.00    +0.024 A 
ATOM     36  C   LIG    1        1.586   3.654   8.217  0.00  0.00    -0.042 A 
ATOM     37  C   LIG    1        0.955   4.746   7.357  0.00  0.00    +0.035 C 
ATOM     38  C   LIG    1        0.367   4.199   6.053  0.00  0.00    +0.006 C 
ATOM     39  C   LIG    1       -0.547   3.010   6.368  0.00  0.00    +0.017 C 
ATOM     40  C   LIG    1        1.037   1.078   5.923  0.00  0.00    +0.120 C 
ATOM     41  C   LIG    1        1.829  -1.189  -0.075  0.00  0.00    +0.005 C 
ENDROOT
BRANCH   1  43
ATOM     42  C   LIG    1       -0.368   1.844   0.224  0.00  0.00    +0.195 C 
ATOM     43  O   LIG    1        0.173   0.525   0.172  0.00  0.00    -0.371 OA
ENDBRANCH   1  43
BRANCH   1  44
ATOM     44  C   LIG    1        2.205   1.146  -1.033  0.00  0.00    +0.123 C 
BRANCH  44  45
ATOM     45  N   LIG    1        3.628   0.862  -1.291  0.00  0.00    -0.303 NA
ATOM     46  C   LIG    1        3.791   0.020  -2.486  0.00  0.00    +0.069 C 
ATOM     47  C   LIG    1        5.265  -0.409  -2.709  0.00  0.00    -0.054 C 
ATOM     48  C   LIG    1        5.449  -1.203  -4.024  0.00  0.00    -0.014 C 
ATOM     49  C   LIG    1        6.922  -1.550  -4.307  0.00  0.00    -0.003 C 
ATOM     50  C   LIG    1        7.805  -0.292  -4.286  0.00  0.00    -0.019 C 
ATOM     51  C   LIG    1        7.655   0.502  -2.975  0.00  0.00    -0.078 C 
ATOM     52  N   LIG    1        6.168   0.857  -2.754  0.00  0.00    +0.383 N 
ATOM     53  H   LIG    1        5.867   1.389  -3.558  0.00  0.00    -0.081 HD
ATOM     54  C   LIG    1        5.913   1.746  -1.518  0.00  0.00    -0.063 C 
ATOM     55  C   LIG    1        4.412   2.090  -1.448  0.00  0.00    +0.066 C 
ENDBRANCH  44  45
ENDBRANCH   1  44
TORSDOF 3
