REMARK  Name = DB17390
REMARK                            x       y       z     vdW  Elec       q    Type
REMARK                         _______ _______ _______ _____ _____    ______ ____
ROOT
ATOM      1  C   LIG    1       -3.486   2.314  -0.356  0.00  0.00    +0.007 C 
ATOM      2  C   LIG    1       -3.514   3.132  -1.670  0.00  0.00    -0.007 C 
ATOM      3  C   LIG    1       -3.993   4.553  -1.346  0.00  0.00    -0.077 C 
ATOM      4  N   LIG    1       -4.164   4.550   0.179  0.00  0.00    +0.385 N 
ATOM      5  H   LIG    1       -5.103   4.236   0.385  0.00  0.00    -0.081 HD
ATOM      6  C   LIG    1       -3.910   5.879   0.913  0.00  0.00    -0.051 C 
ATOM      7  C   LIG    1       -3.975   5.606   2.403  0.00  0.00    -0.049 C 
ATOM      8  C   LIG    1       -3.760   4.399   2.962  0.00  0.00    -0.024 C 
ATOM      9  C   LIG    1       -3.374   3.102   2.209  0.00  0.00    +0.018 C 
ATOM     10  C   LIG    1       -4.419   1.931   2.449  0.00  0.00    +0.229 C 
ATOM     11  C   LIG    1       -5.473   1.699   1.300  0.00  0.00    +0.219 C 
ATOM     12  C   LIG    1       -2.436   1.215  -0.361  0.00  0.00    -0.019 A 
ATOM     13  C   LIG    1       -1.049   1.325  -0.330  0.00  0.00    +0.014 A 
ATOM     14  C   LIG    1       -0.194   0.197  -0.286  0.00  0.00    +0.017 A 
ATOM     15  C   LIG    1       -0.817  -1.083  -0.354  0.00  0.00    +0.126 A 
ATOM     16  C   LIG    1       -2.219  -1.183  -0.420  0.00  0.00    +0.069 A 
ATOM     17  C   LIG    1       -3.011  -0.044  -0.409  0.00  0.00    +0.037 A 
ATOM     18  N   LIG    1       -4.388   0.128  -0.484  0.00  0.00    -0.325 N 
ATOM     19  C   LIG    1       -5.285  -0.528  -1.429  0.00  0.00    +0.129 C 
ATOM     20  C   LIG    1       -4.784   1.491  -0.115  0.00  0.00    +0.128 C 
ATOM     21  C   LIG    1       -3.209   3.440   0.669  0.00  0.00    -0.042 C 
ENDROOT
BRANCH  14  22
ATOM     22  C   LIG    1        1.388   0.332  -0.147  0.00  0.00    +0.136 C 
ATOM     23  C   LIG    1        1.810  -0.437   1.196  0.00  0.00    +0.031 C 
ATOM     24  C   LIG    1        3.268  -0.930   1.297  0.00  0.00    -0.018 C 
ATOM     25  C   LIG    1        3.592  -1.990   2.364  0.00  0.00    +0.035 C 
ATOM     26  C   LIG    1        5.036  -2.551   2.147  0.00  0.00    +0.056 C 
ATOM     27  C   LIG    1        6.104  -1.422   1.851  0.00  0.00    +0.003 C 
ATOM     28  N   LIG    1        5.630  -0.185   1.037  0.00  0.00    +0.403 N 
ATOM     29  C   LIG    1        5.665  -0.454  -0.491  0.00  0.00    -0.027 C 
ATOM     30  C   LIG    1        4.743   0.487  -1.333  0.00  0.00    +0.024 C 
ATOM     31  C   LIG    1        3.481  -0.191  -1.887  0.00  0.00    -0.019 A 
ATOM     32  C   LIG    1        3.528  -0.969  -3.101  0.00  0.00    +0.003 A 
ATOM     33  C   LIG    1        2.216  -1.421  -3.381  0.00  0.00    +0.047 A 
ATOM     34  C   LIG    1        1.903  -2.200  -4.500  0.00  0.00    +0.026 A 
ATOM     35  C   LIG    1        2.955  -2.530  -5.354  0.00  0.00    +0.002 A 
ATOM     36  C   LIG    1        4.256  -2.103  -5.108  0.00  0.00    +0.001 A 
ATOM     37  N   LIG    1        1.429  -0.940  -2.370  0.00  0.00    -0.357 N 
ATOM     38  H   LIG    1        0.436  -1.095  -2.269  0.00  0.00    +0.166 HD
ATOM     39  C   LIG    1        4.557  -1.325  -3.992  0.00  0.00    +0.010 A 
ATOM     40  C   LIG    1        4.256   0.219   1.546  0.00  0.00    -0.028 C 
ATOM     41  C   LIG    1        2.136  -0.236  -1.416  0.00  0.00    +0.042 A 
BRANCH  22  42
ATOM     42  C   LIG    1        1.762   1.856  -0.020  0.00  0.00    +0.323 C 
ATOM     43  O   LIG    1        2.171   2.516  -0.981  0.00  0.00    -0.249 OA
BRANCH  42  44
ATOM     44  O   LIG    1        1.539   2.375   1.216  0.00  0.00    -0.467 OA
ATOM     45  C   LIG    1        1.807   3.742   1.492  0.00  0.00    +0.280 C 
ENDBRANCH  42  44
ENDBRANCH  22  42
BRANCH  28  46
ATOM     46  O   LIG    1        6.467   0.843   1.341  0.00  0.00    -0.444 OA
ATOM     47  H   LIG    1        6.199   1.634   0.848  0.00  0.00    +0.186 HD
ENDBRANCH  28  46
BRANCH  26  48
ATOM     48  O   LIG    1        5.419  -3.292   3.292  0.00  0.00    -0.390 OA
ATOM     49  H   LIG    1        6.252  -3.731   3.104  0.00  0.00    +0.210 HD
ENDBRANCH  26  48
BRANCH  26  50
ATOM     50  C   LIG    1        5.056  -3.635   1.009  0.00  0.00    +0.030 C 
ATOM     51  C   LIG    1        4.294  -4.957   1.261  0.00  0.00    +0.006 C 
ENDBRANCH  26  50
ENDBRANCH  14  22
BRANCH   9  52
ATOM     52  C   LIG    1       -1.980   2.672   2.784  0.00  0.00    +0.010 C 
ATOM     53  C   LIG    1       -1.838   2.377   4.290  0.00  0.00    +0.005 C 
ENDBRANCH   9  52
BRANCH  11  54
ATOM     54  O   LIG    1       -6.309   2.847   1.185  0.00  0.00    -0.373 OA
ATOM     55  H   LIG    1       -6.737   2.995   2.033  0.00  0.00    +0.211 HD
ENDBRANCH  11  54
BRANCH  11  56
ATOM     56  C   LIG    1       -6.426   0.499   1.633  0.00  0.00    +0.345 C 
ATOM     57  O   LIG    1       -7.658   0.598   1.613  0.00  0.00    -0.247 OA
BRANCH  56  58
ATOM     58  O   LIG    1       -5.758  -0.635   1.956  0.00  0.00    -0.466 OA
ATOM     59  C   LIG    1       -6.458  -1.824   2.290  0.00  0.00    +0.280 C 
ENDBRANCH  56  58
ENDBRANCH  11  56
BRANCH  15  60
ATOM     60  O   LIG    1       -0.014  -2.213  -0.367  0.00  0.00    -0.495 OA
ATOM     61  C   LIG    1       -0.588  -3.514  -0.441  0.00  0.00    +0.277 C 
ENDBRANCH  15  60
BRANCH  10  62
ATOM     62  O   LIG    1       -5.071   2.076   3.730  0.00  0.00    -0.457 OA
BRANCH  62  63
ATOM     63  C   LIG    1       -5.081   1.113   4.684  0.00  0.00    +0.304 C 
ATOM     64  O   LIG    1       -4.548   0.006   4.615  0.00  0.00    -0.251 OA
ATOM     65  C   LIG    1       -5.851   1.545   5.925  0.00  0.00    +0.136 C 
ENDBRANCH  62  63
ENDBRANCH  10  62
TORSDOF 13
