REMARK  Name = DB17050
REMARK                            x       y       z     vdW  Elec       q    Type
REMARK                         _______ _______ _______ _____ _____    ______ ____
ROOT
ATOM      1  C   LIG    1       -1.045   1.202  -0.057  0.00  0.00    +0.133 A 
ATOM      2  C   LIG    1       -0.435   0.001   0.365  0.00  0.00    +0.061 A 
ATOM      3  C   LIG    1       -1.215  -1.162   0.462  0.00  0.00    +0.036 A 
ATOM      4  C   LIG    1       -2.566  -1.161   0.121  0.00  0.00    +0.062 A 
ATOM      5 CL   LIG    1       -3.457  -2.640   0.252  0.00  0.00    -0.082 Cl
ATOM      6  C   LIG    1       -3.167   0.023  -0.315  0.00  0.00    +0.047 A 
ATOM      7  C   LIG    1       -2.409   1.190  -0.399  0.00  0.00    +0.070 A 
ENDROOT
BRANCH   6   8
ATOM      8  N   LIG    1       -4.516   0.065  -0.670  0.00  0.00    -0.357 N 
ATOM      9  H   LIG    1       -4.945   0.966  -0.827  0.00  0.00    +0.142 HD
ATOM     10  H   LIG    1       -5.088  -0.741  -0.463  0.00  0.00    +0.142 HD
ENDBRANCH   6   8
BRANCH   2  11
ATOM     11  C   LIG    1        1.017  -0.053   0.765  0.00  0.00    +0.167 C 
ATOM     12  O   LIG    1        1.666   0.927   1.132  0.00  0.00    -0.292 OA
BRANCH  11  13
ATOM     13  C   LIG    1        1.774  -1.378   0.574  0.00  0.00    +0.080 C 
BRANCH  13  14
ATOM     14  C   LIG    1        1.844  -1.840  -0.900  0.00  0.00    +0.011 C 
BRANCH  14  15
ATOM     15  C   LIG    1        2.571  -3.190  -1.102  0.00  0.00    -0.014 C 
ATOM     16  C   LIG    1        1.805  -4.378  -0.478  0.00  0.00    -0.015 C 
ATOM     17  C   LIG    1        2.592  -5.692  -0.625  0.00  0.00    -0.079 C 
ATOM     18  N   LIG    1        2.841  -5.964  -2.132  0.00  0.00    +0.381 N 
ATOM     19  H   LIG    1        1.943  -6.047  -2.588  0.00  0.00    -0.082 HD
ATOM     20  C   LIG    1        3.587  -4.786  -2.807  0.00  0.00    -0.079 C 
ATOM     21  C   LIG    1        2.773  -3.495  -2.601  0.00  0.00    -0.015 C 
BRANCH  18  22
ATOM     22  C   LIG    1        3.631  -7.278  -2.348  0.00  0.00    -0.062 C 
BRANCH  22  23
ATOM     23  C   LIG    1        2.750  -8.517  -2.075  0.00  0.00    +0.087 C 
BRANCH  23  24
ATOM     24  N   LIG    1        3.530  -9.618  -1.481  0.00  0.00    -0.197 NA
ATOM     25  H   LIG    1        4.141 -10.163  -2.095  0.00  0.00    +0.148 HD
BRANCH  24  26
ATOM     26  S   LIG    1        3.793  -9.719   0.258  0.00  0.00    +0.026 S 
ATOM     27  O   LIG    1        3.756  -8.360   0.808  0.00  0.00    -0.158 OA
ATOM     28  O   LIG    1        4.962 -10.578   0.470  0.00  0.00    -0.158 OA
ATOM     29  C   LIG    1        2.270 -10.649   0.864  0.00  0.00    +0.214 C 
ENDBRANCH  24  26
ENDBRANCH  23  24
ENDBRANCH  22  23
ENDBRANCH  18  22
ENDBRANCH  14  15
ENDBRANCH  13  14
ENDBRANCH  11  13
ENDBRANCH   2  11
BRANCH   1  30
ATOM     30  O   LIG    1       -0.268   2.346  -0.146  0.00  0.00    -0.487 OA
BRANCH  30  31
ATOM     31  C   LIG    1       -0.863   3.603  -0.464  0.00  0.00    +0.264 C 
BRANCH  31  34
ATOM     32  C   LIG    1        0.965   6.921  -1.009  0.00  0.00    +0.124 A 
ATOM     33  C   LIG    1        0.041   5.869  -1.121  0.00  0.00    +0.052 A 
ATOM     34  C   LIG    1        0.163   4.723  -0.332  0.00  0.00    -0.004 A 
ATOM     35  C   LIG    1        1.214   4.631   0.587  0.00  0.00    +0.052 A 
ATOM     36  C   LIG    1        2.152   5.668   0.713  0.00  0.00    +0.124 A 
ATOM     37  C   LIG    1        2.010   6.801  -0.091  0.00  0.00    +0.091 A 
BRANCH  32  39
ATOM     38  C   LIG    1       -0.132   8.268  -2.692  0.00  0.00    +0.277 C 
ATOM     39  O   LIG    1        0.918   8.087  -1.748  0.00  0.00    -0.495 OA
ENDBRANCH  32  39
BRANCH  36  40
ATOM     40  O   LIG    1        3.221   5.654   1.587  0.00  0.00    -0.495 OA
ATOM     41  C   LIG    1        3.419   4.518   2.422  0.00  0.00    +0.277 C 
ENDBRANCH  36  40
ENDBRANCH  31  34
ENDBRANCH  30  31
ENDBRANCH   1  30
TORSDOF 14
