REMARK  Name = DB17197
REMARK                            x       y       z     vdW  Elec       q    Type
REMARK                         _______ _______ _______ _____ _____    ______ ____
ROOT
ATOM      1  C   LIG    1        1.922   0.584  -0.468  0.00  0.00    +0.033 A 
ATOM      2  C   LIG    1        2.380  -0.724  -0.297  0.00  0.00    +0.027 A 
ATOM      3  C   LIG    1        3.734  -0.975  -0.096  0.00  0.00    +0.048 A 
ATOM      4  C   LIG    1        4.652   0.085  -0.081  0.00  0.00    +0.131 A 
ATOM      5  C   LIG    1        4.192   1.391  -0.245  0.00  0.00    +0.048 A 
ATOM      6  C   LIG    1        2.839   1.642  -0.449  0.00  0.00    +0.027 A 
ENDROOT
BRANCH   1   7
ATOM      7  N   LIG    1        0.546   0.768  -0.695  0.00  0.00    -0.298 N 
ATOM      8  H   LIG    1        0.110  -0.015  -1.158  0.00  0.00    +0.154 HD
BRANCH   7  16
ATOM      9  C   LIG    1       -1.825   4.114  -0.222  0.00  0.00    +0.108 A 
ATOM     10  C   LIG    1       -2.384   3.070  -1.013  0.00  0.00    +0.014 A 
ATOM     11  C   LIG    1       -3.675   3.119  -1.605  0.00  0.00    +0.011 A 
ATOM     12  C   LIG    1       -4.143   2.053  -2.368  0.00  0.00    +0.001 A 
ATOM     13  C   LIG    1       -3.357   0.923  -2.560  0.00  0.00    +0.001 A 
ATOM     14  C   LIG    1       -2.092   0.834  -1.988  0.00  0.00    +0.012 A 
ATOM     15  C   LIG    1       -1.579   1.903  -1.198  0.00  0.00    +0.026 A 
ATOM     16  C   LIG    1       -0.297   1.890  -0.567  0.00  0.00    +0.153 A 
ATOM     17  N   LIG    1        0.140   2.925   0.198  0.00  0.00    -0.133 NA
ATOM     18  N   LIG    1       -0.609   4.021   0.370  0.00  0.00    -0.146 NA
BRANCH   9  22
ATOM     19  C   LIG    1       -3.910   8.053   2.389  0.00  0.00    +0.044 C 
ATOM     20  C   LIG    1       -3.470   7.228   1.203  0.00  0.00    -0.043 A 
ATOM     21  C   LIG    1       -2.857   5.967   1.287  0.00  0.00    +0.021 A 
ATOM     22  C   LIG    1       -2.505   5.409   0.061  0.00  0.00    +0.040 A 
ATOM     23  S   LIG    1       -2.857   6.506  -1.239  0.00  0.00    -0.095 S 
ATOM     24  C   LIG    1       -3.502   7.658  -0.119  0.00  0.00    +0.049 A 
ENDBRANCH   9  22
ENDBRANCH   7  16
ENDBRANCH   1   7
BRANCH   4  25
ATOM     25  O   LIG    1        6.011  -0.089   0.094  0.00  0.00    -0.437 OA
BRANCH  25  26
ATOM     26  C   LIG    1        6.623  -1.292  -0.189  0.00  0.00    +0.230 A 
ATOM     27  C   LIG    1        6.640  -1.872  -1.478  0.00  0.00    +0.062 A 
ATOM     28  C   LIG    1        7.280  -3.113  -1.607  0.00  0.00    +0.017 A 
ATOM     29  C   LIG    1        7.891  -3.714  -0.506  0.00  0.00    +0.021 A 
ATOM     30  C   LIG    1        7.847  -3.052   0.719  0.00  0.00    +0.114 A 
ATOM     31  N   LIG    1        7.228  -1.859   0.887  0.00  0.00    -0.220 NA
BRANCH  27  32
ATOM     32  C   LIG    1        6.014  -1.231  -2.670  0.00  0.00    +0.081 A 
ATOM     33  C   LIG    1        5.214  -1.953  -3.567  0.00  0.00    +0.048 A 
ATOM     34  C   LIG    1        4.654  -1.248  -4.634  0.00  0.00    +0.116 A 
ATOM     35  N   LIG    1        4.859   0.082  -4.818  0.00  0.00    -0.223 NA
ATOM     36  C   LIG    1        5.651   0.700  -3.906  0.00  0.00    +0.213 A 
ATOM     37  N   LIG    1        6.246   0.102  -2.843  0.00  0.00    -0.215 NA
BRANCH  36  38
ATOM     38  N   LIG    1        5.868   2.064  -4.072  0.00  0.00    -0.327 N 
ATOM     39  H   LIG    1        6.443   2.558  -3.404  0.00  0.00    +0.145 HD
ATOM     40  H   LIG    1        5.436   2.545  -4.847  0.00  0.00    +0.145 HD
ENDBRANCH  36  38
ENDBRANCH  27  32
ENDBRANCH  25  26
ENDBRANCH   4  25
TORSDOF 7
