REMARK  Name = DB17159
REMARK                            x       y       z     vdW  Elec       q    Type
REMARK                         _______ _______ _______ _____ _____    ______ ____
ROOT
ATOM      1  C   LIG    1       -2.253  -1.198  -0.463  0.00  0.00    +0.218 A 
ATOM      2  N   LIG    1       -2.902  -0.031  -0.218  0.00  0.00    -0.213 NA
ATOM      3  C   LIG    1       -2.141   1.080  -0.064  0.00  0.00    +0.098 A 
ATOM      4  C   LIG    1       -2.800   2.371   0.205  0.00  0.00    +0.060 A 
ATOM      5 BR   LIG    1       -4.769   2.489   0.353  0.00  0.00    -0.047 Br
ATOM      6  C   LIG    1       -2.015   3.451   0.346  0.00  0.00    +0.103 A 
ATOM      7  N   LIG    1       -0.655   3.449   0.258  0.00  0.00    -0.327 N 
ATOM      8  H   LIG    1       -0.137   4.309   0.372  0.00  0.00    +0.168 HD
ATOM      9  C   LIG    1        0.092   2.338   0.018  0.00  0.00    +0.261 A 
ATOM     10  O   LIG    1        1.317   2.437  -0.046  0.00  0.00    -0.267 OA
ATOM     11  C   LIG    1       -0.729   1.048  -0.154  0.00  0.00    +0.106 A 
ATOM     12  C   LIG    1       -0.136  -0.214  -0.406  0.00  0.00    +0.141 A 
ATOM     13  N   LIG    1       -0.909  -1.326  -0.562  0.00  0.00    -0.199 NA
ENDROOT
BRANCH   1  14
ATOM     14  N   LIG    1       -2.985  -2.383  -0.642  0.00  0.00    -0.311 N 
ATOM     15  H   LIG    1       -2.444  -3.236  -0.622  0.00  0.00    +0.149 HD
BRANCH  14  21
ATOM     16  C   LIG    1       -8.073  -4.289   1.262  0.00  0.00    -0.096 C 
ATOM     17  N   LIG    1       -6.606  -4.066   0.843  0.00  0.00    +0.378 N 
ATOM     18  H   LIG    1       -6.077  -4.902   1.049  0.00  0.00    -0.082 HD
ATOM     19  C   LIG    1       -6.522  -3.813  -0.680  0.00  0.00    -0.077 C 
ATOM     20  C   LIG    1       -5.046  -3.625  -1.073  0.00  0.00    +0.003 C 
ATOM     21  C   LIG    1       -4.399  -2.477  -0.274  0.00  0.00    +0.070 C 
ATOM     22  C   LIG    1       -4.524  -2.722   1.245  0.00  0.00    +0.003 C 
ATOM     23  C   LIG    1       -5.995  -2.904   1.660  0.00  0.00    -0.077 C 
ENDBRANCH  14  21
ENDBRANCH   1  14
BRANCH  12  24
ATOM     24  N   LIG    1        1.260  -0.366  -0.533  0.00  0.00    -0.299 N 
ATOM     25  H   LIG    1        1.760   0.511  -0.493  0.00  0.00    +0.154 HD
BRANCH  24  26
ATOM     26  C   LIG    1        2.094  -1.485  -0.696  0.00  0.00    +0.033 A 
ATOM     27  C   LIG    1        1.763  -2.759  -0.216  0.00  0.00    +0.027 A 
ATOM     28  C   LIG    1        2.642  -3.824  -0.394  0.00  0.00    +0.048 A 
ATOM     29  C   LIG    1        3.861  -3.620  -1.041  0.00  0.00    +0.129 A 
ATOM     30  C   LIG    1        4.199  -2.352  -1.514  0.00  0.00    +0.048 A 
ATOM     31  C   LIG    1        3.321  -1.287  -1.334  0.00  0.00    +0.027 A 
BRANCH  29  32
ATOM     32  O   LIG    1        4.723  -4.672  -1.221  0.00  0.00    -0.456 OA
BRANCH  32  33
ATOM     33  C   LIG    1        5.675  -4.872  -0.253  0.00  0.00    +0.128 A 
ATOM     34  C   LIG    1        6.920  -4.247  -0.360  0.00  0.00    +0.046 A 
ATOM     35  C   LIG    1        7.888  -4.456   0.619  0.00  0.00    +0.004 A 
ATOM     36  C   LIG    1        7.608  -5.293   1.698  0.00  0.00    +0.000 A 
ATOM     37  C   LIG    1        6.370  -5.923   1.806  0.00  0.00    +0.004 A 
ATOM     38  C   LIG    1        5.401  -5.714   0.827  0.00  0.00    +0.046 A 
ENDBRANCH  32  33
ENDBRANCH  29  32
ENDBRANCH  24  26
ENDBRANCH  12  24
TORSDOF 6
