REMARK  Name = DB17754
REMARK                            x       y       z     vdW  Elec       q    Type
REMARK                         _______ _______ _______ _____ _____    ______ ____
ROOT
ATOM      1  C   LIG    1        1.509   0.079  -0.617  0.00  0.00    -0.030 A 
ATOM      2  C   LIG    1        2.490   0.367  -1.566  0.00  0.00    +0.007 A 
ATOM      3  C   LIG    1        3.831   0.395  -1.193  0.00  0.00    +0.023 A 
ATOM      4  C   LIG    1        4.217   0.130   0.128  0.00  0.00    +0.030 A 
ATOM      5  C   LIG    1        3.219  -0.179   1.067  0.00  0.00    +0.023 A 
ATOM      6  C   LIG    1        1.877  -0.205   0.698  0.00  0.00    +0.007 A 
ENDROOT
BRANCH   4   7
ATOM      7  N   LIG    1        5.571   0.150   0.467  0.00  0.00    -0.330 N 
ATOM      8  C   LIG    1        6.348   1.368   0.163  0.00  0.00    +0.105 C 
ATOM      9  C   LIG    1        7.868   1.119   0.079  0.00  0.00    +0.027 C 
ATOM     10  C   LIG    1        8.416   0.466   1.361  0.00  0.00    +0.022 C 
ATOM     11  C   LIG    1        7.559  -0.756   1.734  0.00  0.00    +0.027 C 
ATOM     12  C   LIG    1        6.051  -0.428   1.737  0.00  0.00    +0.105 C 
BRANCH  10  13
ATOM     13  C   LIG    1        9.910   0.139   1.280  0.00  0.00    -0.044 A 
ATOM     14  C   LIG    1       10.804   0.710   2.189  0.00  0.00    +0.007 A 
ATOM     15  C   LIG    1       12.163   0.413   2.119  0.00  0.00    +0.046 A 
ATOM     16  C   LIG    1       12.647  -0.462   1.134  0.00  0.00    +0.130 A 
ATOM     17  C   LIG    1       11.749  -1.029   0.230  0.00  0.00    +0.046 A 
ATOM     18  C   LIG    1       10.390  -0.735   0.300  0.00  0.00    +0.007 A 
BRANCH  16  19
ATOM     19  O   LIG    1       13.975  -0.817   0.981  0.00  0.00    -0.406 OA
BRANCH  19  20
ATOM     20  C   LIG    1       14.970  -0.318   1.875  0.00  0.00    +0.575 C 
ATOM     21  F   LIG    1       14.746  -0.710   3.131  0.00  0.00    -0.133 F 
ATOM     22  F   LIG    1       15.075   1.011   1.806  0.00  0.00    -0.133 F 
ATOM     23  F   LIG    1       16.138  -0.833   1.496  0.00  0.00    -0.133 F 
ENDBRANCH  19  20
ENDBRANCH  16  19
ENDBRANCH  10  13
ENDBRANCH   4   7
BRANCH   1  24
ATOM     24  C   LIG    1        0.041   0.021  -1.024  0.00  0.00    +0.140 C 
BRANCH  24  26
ATOM     25  C   LIG    1       -0.643   2.390  -1.401  0.00  0.00    +0.263 C 
ATOM     26  N   LIG    1       -0.692   1.244  -0.701  0.00  0.00    -0.306 N 
ATOM     27  H   LIG    1       -1.179   1.248   0.183  0.00  0.00    +0.149 HD
ATOM     28  O   LIG    1       -0.008   2.511  -2.450  0.00  0.00    -0.269 OA
BRANCH  25  30
ATOM     29  C   LIG    1       -1.883   3.678   0.485  0.00  0.00    +0.072 A 
ATOM     30  C   LIG    1       -1.415   3.485  -0.840  0.00  0.00    +0.131 A 
ATOM     31  N   LIG    1       -1.785   4.644  -1.510  0.00  0.00    -0.294 N 
ATOM     32  C   LIG    1       -1.621   5.074  -2.808  0.00  0.00    +0.113 A 
ATOM     33  C   LIG    1       -2.124   6.312  -3.196  0.00  0.00    +0.058 A 
ATOM     34 CL   LIG    1       -1.920   6.853  -4.822  0.00  0.00    -0.082 Cl
ATOM     35  C   LIG    1       -2.793   7.111  -2.273  0.00  0.00    +0.025 A 
ATOM     36  C   LIG    1       -2.972   6.687  -0.956  0.00  0.00    +0.048 A 
ATOM     37  C   LIG    1       -2.462   5.435  -0.564  0.00  0.00    +0.138 A 
ATOM     38  N   LIG    1       -2.511   4.826   0.639  0.00  0.00    -0.232 NA
BRANCH  29  40
ATOM     39  C   LIG    1       -0.339   2.863   2.331  0.00  0.00    +0.010 C 
ATOM     40  C   LIG    1       -1.746   2.794   1.719  0.00  0.00    +0.054 C 
ENDBRANCH  29  40
ENDBRANCH  25  30
ENDBRANCH  24  26
ENDBRANCH   1  24
TORSDOF 8
