REMARK  Name = DB17045
REMARK                            x       y       z     vdW  Elec       q    Type
REMARK                         _______ _______ _______ _____ _____    ______ ____
ROOT
ATOM      1  C   LIG    1       -3.691  -2.909  -1.215  0.00  0.00    +0.056 C 
ATOM      2  C   LIG    1       -2.306  -2.941  -1.832  0.00  0.00    +0.016 C 
ATOM      3  C   LIG    1       -2.251  -3.291  -3.334  0.00  0.00    +0.015 C 
ATOM      4  C   LIG    1       -1.090  -3.538  -1.084  0.00  0.00    +0.015 C 
ATOM      5  C   LIG    1       -2.889  -1.596  -1.398  0.00  0.00    +0.160 C 
ATOM      6  C   LIG    1       -2.457  -0.851  -0.083  0.00  0.00    +0.226 C 
ATOM      7  C   LIG    1       -2.944  -1.373   1.310  0.00  0.00    +0.064 C 
ATOM      8  C   LIG    1       -2.977  -0.188   2.307  0.00  0.00    +0.014 C 
ATOM      9  C   LIG    1       -4.267  -2.225   1.215  0.00  0.00    +0.088 C 
ATOM     10  C   LIG    1       -4.853  -2.767   2.577  0.00  0.00    +0.084 C 
ATOM     11  C   LIG    1       -5.090  -1.843   3.745  0.00  0.00    -0.011 C 
ATOM     12  C   LIG    1       -4.778  -2.410   4.922  0.00  0.00    -0.009 C 
ATOM     13  C   LIG    1       -4.918  -1.883   6.339  0.00  0.00    +0.047 C 
ATOM     14  C   LIG    1       -4.279  -3.770   4.716  0.00  0.00    +0.191 C 
ATOM     15  O   LIG    1       -3.995  -4.555   5.624  0.00  0.00    -0.289 OA
ATOM     16  C   LIG    1       -4.158  -3.996   3.202  0.00  0.00    +0.140 C 
ATOM     17  C   LIG    1       -4.782  -5.331   2.692  0.00  0.00    +0.076 C 
ATOM     18  C   LIG    1       -5.276  -5.408   1.234  0.00  0.00    -0.045 C 
ATOM     19  C   LIG    1       -4.962  -4.559   0.223  0.00  0.00    -0.019 C 
ATOM     20  C   LIG    1       -3.952  -3.406   0.233  0.00  0.00    +0.052 C 
ENDROOT
BRANCH   9  21
ATOM     21  O   LIG    1       -5.301  -1.407   0.675  0.00  0.00    -0.387 OA
ATOM     22  H   LIG    1       -5.058  -1.163  -0.222  0.00  0.00    +0.210 HD
ENDBRANCH   9  21
BRANCH  16  23
ATOM     23  O   LIG    1       -2.760  -4.123   2.990  0.00  0.00    -0.380 OA
ATOM     24  H   LIG    1       -2.333  -3.318   3.292  0.00  0.00    +0.211 HD
ENDBRANCH  16  23
BRANCH   5  25
ATOM     25  O   LIG    1       -3.412  -0.717  -2.398  0.00  0.00    -0.454 OA
BRANCH  25  26
ATOM     26  C   LIG    1       -2.609   0.047  -3.177  0.00  0.00    +0.305 C 
ATOM     27  O   LIG    1       -1.378   0.043  -3.185  0.00  0.00    -0.251 OA
ATOM     28  C   LIG    1       -3.403   0.943  -4.118  0.00  0.00    +0.136 C 
ENDBRANCH  25  26
ENDBRANCH   5  25
BRANCH   6  29
ATOM     29  O   LIG    1       -1.032  -0.706  -0.122  0.00  0.00    -0.457 OA
BRANCH  29  30
ATOM     30  C   LIG    1       -0.408   0.496  -0.143  0.00  0.00    +0.307 C 
ATOM     31  O   LIG    1       -0.958   1.599  -0.122  0.00  0.00    -0.251 OA
BRANCH  30  32
ATOM     32  C   LIG    1        1.114   0.337  -0.234  0.00  0.00    +0.120 C 
BRANCH  32  33
ATOM     33  C   LIG    1        1.869   1.619  -0.639  0.00  0.00    +0.011 C 
BRANCH  33  34
ATOM     34  C   LIG    1        3.385   1.394  -0.763  0.00  0.00    +0.001 C 
BRANCH  34  35
ATOM     35  C   LIG    1        4.143   2.652  -1.223  0.00  0.00    +0.000 C 
BRANCH  35  36
ATOM     36  C   LIG    1        5.660   2.426  -1.350  0.00  0.00    +0.000 C 
BRANCH  36  37
ATOM     37  C   LIG    1        6.409   3.666  -1.870  0.00  0.00    +0.000 C 
BRANCH  37  38
ATOM     38  C   LIG    1        7.929   3.451  -1.974  0.00  0.00    -0.000 C 
BRANCH  38  39
ATOM     39  C   LIG    1        8.669   4.680  -2.537  0.00  0.00    -0.000 C 
BRANCH  39  40
ATOM     40  C   LIG    1       10.205   4.550  -2.547  0.00  0.00    -0.000 C 
BRANCH  40  41
ATOM     41  C   LIG    1       10.744   3.444  -3.479  0.00  0.00    -0.000 C 
BRANCH  41  42
ATOM     42  C   LIG    1       12.278   3.436  -3.631  0.00  0.00    -0.000 C 
BRANCH  42  43
ATOM     43  C   LIG    1       13.044   3.110  -2.334  0.00  0.00    -0.003 C 
ATOM     44  C   LIG    1       14.561   3.018  -2.543  0.00  0.00    +0.004 C 
ENDBRANCH  42  43
ENDBRANCH  41  42
ENDBRANCH  40  41
ENDBRANCH  39  40
ENDBRANCH  38  39
ENDBRANCH  37  38
ENDBRANCH  36  37
ENDBRANCH  35  36
ENDBRANCH  34  35
ENDBRANCH  33  34
ENDBRANCH  32  33
ENDBRANCH  30  32
ENDBRANCH  29  30
ENDBRANCH   6  29
BRANCH  18  45
ATOM     45  C   LIG    1       -6.227  -6.558   0.903  0.00  0.00    +0.186 C 
BRANCH  45  46
ATOM     46  O   LIG    1       -7.431  -6.402   1.626  0.00  0.00    -0.391 OA
ATOM     47  H   LIG    1       -8.002  -7.149   1.433  0.00  0.00    +0.210 HD
ENDBRANCH  45  46
ENDBRANCH  18  45
TORSDOF 20
