REMARK  Name = DB17121
REMARK                            x       y       z     vdW  Elec       q    Type
REMARK                         _______ _______ _______ _____ _____    ______ ____
ROOT
ATOM      1  C   LIG    1        1.294   0.063   0.450  0.00  0.00    +0.387 C 
ATOM      2  N   LIG    1        1.578   1.311   0.461  0.00  0.00    -0.067 NA
ENDROOT
BRANCH   1   3
ATOM      3  N   LIG    1        2.172  -0.872   1.039  0.00  0.00    -0.289 N 
ATOM      4  H   LIG    1        3.058  -0.596   1.437  0.00  0.00    +0.255 HD
ATOM      5  H   LIG    1        2.015  -1.867   0.986  0.00  0.00    +0.255 HD
ENDBRANCH   1   3
BRANCH   1   6
ATOM      6  N   LIG    1        0.096  -0.445  -0.140  0.00  0.00    -0.244 N 
ATOM      7  H   LIG    1       -0.492   0.275  -0.533  0.00  0.00    +0.265 HD
BRANCH   6  11
ATOM      8  C   LIG    1       -1.831  -4.162  -0.703  0.00  0.00    +0.130 A 
ATOM      9  C   LIG    1       -0.571  -4.138  -0.087  0.00  0.00    +0.049 A 
ATOM     10  C   LIG    1        0.094  -2.930   0.114  0.00  0.00    +0.046 A 
ATOM     11  C   LIG    1       -0.485  -1.720  -0.295  0.00  0.00    +0.100 A 
ATOM     12  C   LIG    1       -1.738  -1.754  -0.911  0.00  0.00    +0.046 A 
ATOM     13  C   LIG    1       -2.403  -2.959  -1.113  0.00  0.00    +0.049 A 
BRANCH   8  14
ATOM     14  O   LIG    1       -2.568  -5.306  -0.943  0.00  0.00    -0.406 OA
BRANCH  14  16
ATOM     15  F   LIG    1       -3.001  -7.486  -0.877  0.00  0.00    -0.133 F 
ATOM     16  C   LIG    1       -2.083  -6.585  -0.533  0.00  0.00    +0.575 C 
ATOM     17  F   LIG    1       -0.949  -6.906  -1.158  0.00  0.00    -0.133 F 
ATOM     18  F   LIG    1       -1.930  -6.653   0.791  0.00  0.00    -0.133 F 
ENDBRANCH  14  16
ENDBRANCH   8  14
ENDBRANCH   6  11
ENDBRANCH   1   6
BRANCH   2  19
ATOM     19  C   LIG    1        0.724   2.179  -0.100  0.00  0.00    +0.300 C 
BRANCH  19  20
ATOM     20  N   LIG    1       -0.266   2.749   0.635  0.00  0.00    -0.247 NA
ATOM     21  C   LIG    1       -1.198   3.814   0.179  0.00  0.00    +0.089 C 
ATOM     22  C   LIG    1       -1.913   4.303   1.436  0.00  0.00    +0.017 C 
ATOM     23  C   LIG    1       -1.923   3.095   2.336  0.00  0.00    +0.017 C 
ATOM     24  C   LIG    1       -0.590   2.413   2.044  0.00  0.00    +0.089 C 
ENDBRANCH  19  20
BRANCH  19  25
ATOM     25  N   LIG    1        0.980   2.541  -1.365  0.00  0.00    -0.275 NA
ATOM     26  H   LIG    1        0.404   3.234  -1.820  0.00  0.00    +0.123 HD
ATOM     27  H   LIG    1        1.762   2.127  -1.850  0.00  0.00    +0.123 HD
ENDBRANCH  19  25
ENDBRANCH   2  19
TORSDOF 8
