REMARK  Name = DB17109
REMARK                            x       y       z     vdW  Elec       q    Type
REMARK                         _______ _______ _______ _____ _____    ______ ____
ROOT
ATOM      1  C   LIG    1        1.829  -0.193  -0.392  0.00  0.00    +0.106 A 
ATOM      2  C   LIG    1        2.399  -0.044   0.871  0.00  0.00    +0.039 A 
ATOM      3  C   LIG    1        3.792  -0.101   1.052  0.00  0.00    +0.015 A 
ATOM      4  C   LIG    1        4.376   0.119   2.402  0.00  0.00    +0.118 C 
ATOM      5  C   LIG    1        5.764   0.685   2.355  0.00  0.00    +0.015 A 
ATOM      6  C   LIG    1        6.611   0.405   1.250  0.00  0.00    +0.014 A 
ATOM      7  C   LIG    1        6.121  -0.407   0.102  0.00  0.00    +0.118 C 
ATOM      8  N   LIG    1        6.971  -1.105  -0.563  0.00  0.00    -0.086 NA
ATOM      9  C   LIG    1        7.918   0.926   1.243  0.00  0.00    +0.013 A 
ATOM     10  C   LIG    1        8.379   1.729   2.280  0.00  0.00    +0.029 A 
ATOM     11  C   LIG    1        7.533   2.052   3.337  0.00  0.00    +0.106 A 
ATOM     12  C   LIG    1        6.235   1.546   3.361  0.00  0.00    +0.039 A 
ATOM     13  N   LIG    1        3.696  -0.237   3.434  0.00  0.00    -0.086 NA
ATOM     14  C   LIG    1        4.629  -0.342  -0.070  0.00  0.00    +0.014 A 
ATOM     15  C   LIG    1        4.032  -0.447  -1.339  0.00  0.00    +0.013 A 
ATOM     16  C   LIG    1        2.651  -0.384  -1.499  0.00  0.00    +0.029 A 
ENDROOT
BRANCH   1  17
ATOM     17  S   LIG    1        0.053  -0.085  -0.584  0.00  0.00    +0.061 S 
ATOM     18  O   LIG    1       -0.290  -0.599  -1.916  0.00  0.00    -0.153 OA
ATOM     19  O   LIG    1       -0.537  -0.690   0.616  0.00  0.00    -0.153 OA
BRANCH  17  23
ATOM     20  C   LIG    1        0.506   4.695  -2.791  0.00  0.00    +0.009 C 
ATOM     21  C   LIG    1        0.100   3.908  -1.534  0.00  0.00    +0.002 C 
ATOM     22  C   LIG    1        0.090   2.383  -1.799  0.00  0.00    +0.112 C 
ATOM     23  N   LIG    1       -0.288   1.653  -0.558  0.00  0.00    -0.176 NA
ATOM     24  C   LIG    1       -1.617   2.039  -0.008  0.00  0.00    +0.112 C 
ATOM     25  C   LIG    1       -1.645   3.559   0.289  0.00  0.00    +0.002 C 
ATOM     26  C   LIG    1       -2.999   3.996   0.870  0.00  0.00    +0.009 C 
ATOM     27  C   LIG    1       -1.290   4.331  -1.004  0.00  0.00    +0.009 C 
ENDBRANCH  17  23
ENDBRANCH   1  17
BRANCH  11  28
ATOM     28  S   LIG    1        8.109   3.086   4.682  0.00  0.00    +0.061 S 
ATOM     29  O   LIG    1        6.957   3.849   5.178  0.00  0.00    -0.153 OA
ATOM     30  O   LIG    1        9.308   3.785   4.202  0.00  0.00    -0.153 OA
BRANCH  28  31
ATOM     31  N   LIG    1        8.594   1.931   5.937  0.00  0.00    -0.176 NA
ATOM     32  C   LIG    1        7.488   1.379   6.768  0.00  0.00    +0.112 C 
ATOM     33  C   LIG    1        7.959   0.096   7.491  0.00  0.00    +0.002 C 
ATOM     34  C   LIG    1        6.837  -0.517   8.345  0.00  0.00    +0.009 C 
ATOM     35  C   LIG    1        9.214   0.432   8.331  0.00  0.00    +0.009 C 
ATOM     36  C   LIG    1       10.343   0.995   7.435  0.00  0.00    +0.002 C 
ATOM     37  C   LIG    1       11.622   1.287   8.236  0.00  0.00    +0.009 C 
ATOM     38  C   LIG    1        9.828   2.258   6.702  0.00  0.00    +0.112 C 
ENDBRANCH  28  31
ENDBRANCH  11  28
BRANCH   8  39
ATOM     39  O   LIG    1        6.439  -2.026  -1.480  0.00  0.00    -0.409 OA
ATOM     40  H   LIG    1        7.231  -2.430  -1.842  0.00  0.00    +0.328 HD
ENDBRANCH   8  39
BRANCH  13  41
ATOM     41  O   LIG    1        4.380  -0.231   4.662  0.00  0.00    -0.409 OA
ATOM     42  H   LIG    1        3.704  -0.540   5.269  0.00  0.00    +0.328 HD
ENDBRANCH  13  41
TORSDOF 6
