REMARK  Name = DB17706
REMARK                            x       y       z     vdW  Elec       q    Type
REMARK                         _______ _______ _______ _____ _____    ______ ____
ROOT
ATOM      1  C   LIG    1        1.554   0.037  -0.002  0.00  0.00    +0.062 C 
ATOM      2  C   LIG    1        2.029  -1.442  -0.034  0.00  0.00    +0.022 C 
ATOM      3  C   LIG    1        2.104   0.676   1.311  0.00  0.00    +0.022 C 
ENDROOT
BRANCH   1   5
ATOM      4  C   LIG    1       -0.691   1.446  -0.070  0.00  0.00    +0.005 C 
ATOM      5  C   LIG    1       -0.012   0.063   0.029  0.00  0.00    +0.014 C 
ENDBRANCH   1   5
BRANCH   1   6
ATOM      6  C   LIG    1        2.105   0.750  -1.295  0.00  0.00    +0.310 C 
ATOM      7  O   LIG    1        2.981   1.642  -1.191  0.00  0.00    -0.250 OA
BRANCH   6   8
ATOM      8  O   LIG    1        1.654   0.381  -2.406  0.00  0.00    -0.480 OA
ATOM      9  H   LIG    1        1.961   0.785  -3.194  0.00  0.00    +0.295 HD
ENDBRANCH   6   8
ENDBRANCH   1   6
TORSDOF 3
