REMARK  Name = DB17163
REMARK                            x       y       z     vdW  Elec       q    Type
REMARK                         _______ _______ _______ _____ _____    ______ ____
ROOT
ATOM      1  F   LIG    1       -0.068  -2.550  -0.811  0.00  0.00    -0.205 F 
ATOM      2  C   LIG    1       -0.738  -1.383  -0.654  0.00  0.00    +0.135 A 
ATOM      3  C   LIG    1       -2.117  -1.363  -0.861  0.00  0.00    +0.039 A 
ATOM      4  C   LIG    1       -2.838  -0.183  -0.687  0.00  0.00    +0.008 A 
ATOM      5  C   LIG    1       -2.184   0.994  -0.309  0.00  0.00    -0.027 A 
ATOM      6  C   LIG    1       -0.800   0.976  -0.117  0.00  0.00    +0.021 A 
ATOM      7  C   LIG    1       -0.068  -0.208  -0.280  0.00  0.00    +0.072 A 
ENDROOT
BRANCH   7   8
ATOM      8  C   LIG    1        1.416  -0.219  -0.008  0.00  0.00    +0.249 C 
ATOM      9  N   LIG    1        1.854   0.084   1.247  0.00  0.00    -0.294 N 
ATOM     10  C   LIG    1        3.285   0.186   1.542  0.00  0.00    +0.127 C 
ATOM     11  C   LIG    1        3.559   1.579   2.154  0.00  0.00    +0.127 C 
ATOM     12  N   LIG    1        2.673   2.002   3.261  0.00  0.00    -0.297 N 
ATOM     13  C   LIG    1        1.255   1.662   3.018  0.00  0.00    +0.127 C 
ATOM     14  C   LIG    1        0.984   0.268   2.414  0.00  0.00    +0.127 C 
ATOM     15  O   LIG    1        2.174  -0.487  -0.942  0.00  0.00    -0.270 OA
BRANCH  12  16
ATOM     16  C   LIG    1        3.030   3.055   4.115  0.00  0.00    +0.218 A 
ATOM     17  N   LIG    1        2.074   3.554   4.954  0.00  0.00    -0.223 NA
ATOM     18  C   LIG    1        2.449   4.535   5.816  0.00  0.00    +0.116 A 
ATOM     19  C   LIG    1        3.755   5.021   5.871  0.00  0.00    +0.039 A 
ATOM     20  C   LIG    1        4.676   4.448   4.994  0.00  0.00    +0.116 A 
ATOM     21  N   LIG    1        4.333   3.465   4.121  0.00  0.00    -0.223 NA
ENDBRANCH  12  16
ENDBRANCH   7   8
BRANCH   5  22
ATOM     22  C   LIG    1       -2.962   2.288  -0.082  0.00  0.00    +0.162 C 
BRANCH  22  23
ATOM     23  N   LIG    1       -4.160   2.152   0.780  0.00  0.00    -0.289 N 
ATOM     24  C   LIG    1       -3.978   1.918   2.178  0.00  0.00    +0.062 A 
ATOM     25  C   LIG    1       -2.717   1.898   2.799  0.00  0.00    +0.027 A 
ATOM     26  C   LIG    1       -2.598   1.658   4.165  0.00  0.00    +0.005 A 
ATOM     27  C   LIG    1       -3.734   1.435   4.937  0.00  0.00    +0.039 A 
ATOM     28  C   LIG    1       -4.998   1.455   4.351  0.00  0.00    +0.138 A 
ATOM     29  F   LIG    1       -6.078   1.236   5.140  0.00  0.00    -0.205 F 
ATOM     30  C   LIG    1       -5.123   1.699   2.972  0.00  0.00    +0.098 A 
ATOM     31  C   LIG    1       -6.494   1.731   2.322  0.00  0.00    +0.264 A 
ATOM     32  O   LIG    1       -7.574   1.553   2.885  0.00  0.00    -0.267 OA
ATOM     33  N   LIG    1       -6.439   1.985   0.991  0.00  0.00    -0.274 N 
ATOM     34  H   LIG    1       -7.340   2.013   0.536  0.00  0.00    +0.173 HD
ATOM     35  C   LIG    1       -5.383   2.198   0.158  0.00  0.00    +0.330 A 
ATOM     36  O   LIG    1       -5.584   2.394  -1.042  0.00  0.00    -0.246 OA
ENDBRANCH  22  23
ENDBRANCH   5  22
TORSDOF 4
