REMARK  Name = DB17084
REMARK                            x       y       z     vdW  Elec       q    Type
REMARK                         _______ _______ _______ _____ _____    ______ ____
ROOT
ATOM      1  N   LIG    1        1.428   0.449  -0.543  0.00  0.00    -0.288 NA
ATOM      2  C   LIG    1        1.770   1.418  -1.614  0.00  0.00    +0.100 C 
ATOM      3  C   LIG    1        0.974   2.812  -1.769  0.00  0.00    +0.101 C 
ATOM      4  N   LIG    1       -0.473   3.044  -2.185  0.00  0.00    -0.283 NA
ATOM      5  C   LIG    1       -1.652   3.044  -1.224  0.00  0.00    +0.140 C 
ATOM      6  C   LIG    1       -2.444   1.715  -1.167  0.00  0.00    +0.056 A 
ATOM      7  N   LIG    1       -2.366   0.497   0.506  0.00  0.00    -0.254 NA
ATOM      8  C   LIG    1       -2.140  -1.525   0.294  0.00  0.00    +0.056 A 
ATOM      9  C   LIG    1       -2.199  -2.385  -1.589  0.00  0.00    +0.024 A 
ATOM     10  C   LIG    1       -2.418  -1.196  -3.270  0.00  0.00    +0.004 A 
ATOM     11  C   LIG    1       -1.135  -2.216   1.243  0.00  0.00    +0.140 C 
ATOM     12  N   LIG    1        0.138  -2.620   0.540  0.00  0.00    -0.283 NA
ATOM     13  C   LIG    1        1.439  -1.887   0.751  0.00  0.00    +0.101 C 
ATOM     14  C   LIG    1       -2.503   0.860  -3.060  0.00  0.00    +0.024 A 
ATOM     15  C   LIG    1        2.046  -0.898  -0.365  0.00  0.00    +0.100 C 
ENDROOT
BRANCH   1  16
ATOM     16  C   LIG    1        0.002   0.477  -0.267  0.00  0.00    +0.167 C 
BRANCH  16  17
ATOM     17  C   LIG    1       -1.145  -0.234  -1.423  0.00  0.00    +0.322 C 
ATOM     18  O   LIG    1       -3.132  -0.388  -1.338  0.00  0.00    -0.249 OA
BRANCH  17  19
ATOM     19  O   LIG    1       -0.222  -0.606  -2.241  0.00  0.00    -0.480 OA
ATOM     20  H   LIG    1       -0.450  -1.051  -3.034  0.00  0.00    +0.295 HD
ENDBRANCH  17  19
ENDBRANCH  16  17
BRANCH  16  21
ATOM     21  C   LIG    1       -0.024   1.647   0.885  0.00  0.00    +0.039 C 
BRANCH  21  22
ATOM     22  C   LIG    1        0.404   1.252   2.332  0.00  0.00    +0.098 C 
BRANCH  22  25
ATOM     23  N   LIG    1        2.277   0.271   3.556  0.00  0.00    -0.313 N 
ATOM     24  H   LIG    1        1.552  -0.271   4.004  0.00  0.00    +0.149 HD
ATOM     25  C   LIG    1        1.915   1.148   2.605  0.00  0.00    +0.213 C 
ATOM     26  O   LIG    1        2.718   1.858   1.997  0.00  0.00    -0.276 OA
BRANCH  23  27
ATOM     27  C   LIG    1        3.646   0.005   4.008  0.00  0.00    +0.137 C 
BRANCH  27  28
ATOM     28  C   LIG    1        4.163   0.933   5.140  0.00  0.00    +0.157 C 
BRANCH  28  29
ATOM     29  O   LIG    1        4.191   2.290   4.738  0.00  0.00    -0.388 OA
ATOM     30  H   LIG    1        3.298   2.554   4.502  0.00  0.00    +0.210 HD
ENDBRANCH  28  29
BRANCH  28  31
ATOM     31  C   LIG    1        3.434   0.785   6.497  0.00  0.00    +0.188 C 
BRANCH  31  32
ATOM     32  O   LIG    1        2.069   1.158   6.437  0.00  0.00    -0.392 OA
ATOM     33  H   LIG    1        1.686   1.057   7.311  0.00  0.00    +0.210 HD
ENDBRANCH  31  32
ENDBRANCH  28  31
ENDBRANCH  27  28
ENDBRANCH  23  27
ENDBRANCH  22  25
ENDBRANCH  21  22
ENDBRANCH  16  21
ENDBRANCH   1  16
BRANCH   4  34
ATOM     34  C   LIG    1       -0.513   4.321  -2.995  0.00  0.00    +0.167 C 
BRANCH  34  35
ATOM     35  C   LIG    1       -1.601   4.299  -4.141  0.00  0.00    +0.322 C 
ATOM     36  O   LIG    1       -2.591   5.055  -3.998  0.00  0.00    -0.249 OA
BRANCH  35  37
ATOM     37  O   LIG    1       -1.330   3.539  -5.100  0.00  0.00    -0.480 OA
ATOM     38  H   LIG    1       -1.923   3.467  -5.822  0.00  0.00    +0.295 HD
ENDBRANCH  35  37
ENDBRANCH  34  35
BRANCH  34  39
ATOM     39  C   LIG    1       -0.477   5.629  -2.119  0.00  0.00    +0.039 C 
BRANCH  39  40
ATOM     40  C   LIG    1       -0.091   6.943  -2.846  0.00  0.00    +0.098 C 
BRANCH  40  41
ATOM     41  C   LIG    1        1.259   6.878  -3.569  0.00  0.00    +0.213 C 
ATOM     42  N   LIG    1        1.215   6.648  -4.893  0.00  0.00    -0.313 N 
ATOM     43  H   LIG    1        0.310   6.557  -5.333  0.00  0.00    +0.149 HD
ATOM     44  O   LIG    1        2.304   7.010  -2.930  0.00  0.00    -0.276 OA
BRANCH  42  45
ATOM     45  C   LIG    1        2.377   6.459  -5.763  0.00  0.00    +0.137 C 
BRANCH  45  46
ATOM     46  C   LIG    1        2.862   4.991  -5.861  0.00  0.00    +0.157 C 
BRANCH  46  47
ATOM     47  O   LIG    1        3.336   4.550  -4.598  0.00  0.00    -0.388 OA
ATOM     48  H   LIG    1        4.007   5.164  -4.291  0.00  0.00    +0.210 HD
ENDBRANCH  46  47
BRANCH  46  49
ATOM     49  C   LIG    1        3.985   4.819  -6.906  0.00  0.00    +0.188 C 
BRANCH  49  50
ATOM     50  O   LIG    1        4.250   3.454  -7.162  0.00  0.00    -0.392 OA
ATOM     51  H   LIG    1        4.958   3.394  -7.809  0.00  0.00    +0.210 HD
ENDBRANCH  49  50
ENDBRANCH  46  49
ENDBRANCH  45  46
ENDBRANCH  42  45
ENDBRANCH  40  41
ENDBRANCH  39  40
ENDBRANCH  34  39
ENDBRANCH   4  34
BRANCH  12  52
ATOM     52  C   LIG    1        0.260  -4.096   0.318  0.00  0.00    +0.167 C 
BRANCH  52  53
ATOM     53  C   LIG    1        1.127  -4.481  -0.951  0.00  0.00    +0.322 C 
ATOM     54  O   LIG    1        0.758  -3.954  -2.026  0.00  0.00    -0.249 OA
BRANCH  53  55
ATOM     55  O   LIG    1        2.073  -5.285  -0.772  0.00  0.00    -0.480 OA
ATOM     56  H   LIG    1        2.613  -5.542  -1.493  0.00  0.00    +0.295 HD
ENDBRANCH  53  55
ENDBRANCH  52  53
BRANCH  52  57
ATOM     57  C   LIG    1        0.620  -4.848   1.644  0.00  0.00    +0.039 C 
BRANCH  57  58
ATOM     58  C   LIG    1        0.206  -6.343   1.665  0.00  0.00    +0.098 C 
BRANCH  58  59
ATOM     59  C   LIG    1        1.178  -7.246   2.436  0.00  0.00    +0.213 C 
ATOM     60  N   LIG    1        1.543  -8.390   1.831  0.00  0.00    -0.313 N 
ATOM     61  H   LIG    1        1.156  -8.596   0.922  0.00  0.00    +0.149 HD
ATOM     62  O   LIG    1        1.573  -6.912   3.555  0.00  0.00    -0.276 OA
BRANCH  60  63
ATOM     63  C   LIG    1        2.454  -9.391   2.388  0.00  0.00    +0.137 C 
BRANCH  63  64
ATOM     64  C   LIG    1        3.905  -9.270   1.868  0.00  0.00    +0.157 C 
BRANCH  64  65
ATOM     65  O   LIG    1        4.588 -10.468   2.198  0.00  0.00    -0.388 OA
ATOM     66  H   LIG    1        4.656 -10.527   3.154  0.00  0.00    +0.210 HD
ENDBRANCH  64  65
BRANCH  64  67
ATOM     67  C   LIG    1        4.674  -8.069   2.465  0.00  0.00    +0.188 C 
BRANCH  67  68
ATOM     68  O   LIG    1        5.929  -7.892   1.836  0.00  0.00    -0.392 OA
ATOM     69  H   LIG    1        6.348  -7.112   2.205  0.00  0.00    +0.210 HD
ENDBRANCH  67  68
ENDBRANCH  64  67
ENDBRANCH  63  64
ENDBRANCH  60  63
ENDBRANCH  58  59
ENDBRANCH  57  58
ENDBRANCH  52  57
ENDBRANCH  12  52
TORSDOF 33
