REMARK  Name = DB17247
REMARK                            x       y       z     vdW  Elec       q    Type
REMARK                         _______ _______ _______ _____ _____    ______ ____
ROOT
ATOM      1  C   LIG    1        1.521   0.679   0.405  0.00  0.00    +0.010 A 
ATOM      2  C   LIG    1        2.208   1.931   0.219  0.00  0.00    -0.008 A 
ATOM      3  C   LIG    1        1.586   3.202   0.470  0.00  0.00    +0.009 A 
ATOM      4  C   LIG    1        2.242   4.402   0.243  0.00  0.00    +0.001 A 
ATOM      5  C   LIG    1        3.535   4.403  -0.240  0.00  0.00    +0.001 A 
ATOM      6  C   LIG    1        4.193   3.204  -0.469  0.00  0.00    +0.009 A 
ATOM      7  C   LIG    1        3.573   1.932  -0.219  0.00  0.00    -0.008 A 
ATOM      8  C   LIG    1        4.261   0.681  -0.405  0.00  0.00    +0.010 A 
ATOM      9  C   LIG    1        3.580  -0.568  -0.202  0.00  0.00    -0.008 A 
ATOM     10  C   LIG    1        4.227  -1.841  -0.378  0.00  0.00    +0.009 A 
ATOM     11  C   LIG    1        3.559  -3.040  -0.186  0.00  0.00    +0.001 A 
ATOM     12  C   LIG    1        2.229  -3.041   0.187  0.00  0.00    +0.001 A 
ATOM     13  C   LIG    1        1.559  -1.843   0.377  0.00  0.00    +0.009 A 
ATOM     14  C   LIG    1        2.204  -0.569   0.202  0.00  0.00    -0.008 A 
ENDROOT
BRANCH   1  16
ATOM     15  N   LIG    1       -0.822   1.285   0.189  0.00  0.00    -0.192 NA
ATOM     16  C   LIG    1        0.090   0.643   0.803  0.00  0.00    +0.139 C 
BRANCH  15  17
ATOM     17  N   LIG    1       -2.085   1.122   0.685  0.00  0.00    -0.231 N 
ATOM     18  H   LIG    1       -2.193   0.515   1.485  0.00  0.00    +0.172 HD
BRANCH  17  22
ATOM     19  C   LIG    1       -5.327   2.515   0.001  0.00  0.00    +0.099 C 
ATOM     20  N   LIG    1       -4.394   1.582   0.617  0.00  0.00    -0.277 NA
ATOM     21  H   LIG    1       -4.649   0.981   1.388  0.00  0.00    +0.125 HD
ATOM     22  C   LIG    1       -3.154   1.731   0.153  0.00  0.00    +0.205 C 
ATOM     23  N   LIG    1       -3.215   2.561  -0.897  0.00  0.00    -0.277 NA
ATOM     24  H   LIG    1       -2.434   3.111  -1.224  0.00  0.00    +0.125 HD
ATOM     25  C   LIG    1       -4.587   2.861  -1.281  0.00  0.00    +0.099 C 
ENDBRANCH  17  22
ENDBRANCH  15  17
ENDBRANCH   1  16
BRANCH   8  26
ATOM     26  C   LIG    1        5.693   0.648  -0.803  0.00  0.00    +0.139 C 
ATOM     27  N   LIG    1        6.603   1.293  -0.190  0.00  0.00    -0.192 NA
BRANCH  27  28
ATOM     28  N   LIG    1        7.867   1.132  -0.686  0.00  0.00    -0.231 N 
ATOM     29  H   LIG    1        7.976   0.527  -1.487  0.00  0.00    +0.172 HD
BRANCH  28  30
ATOM     30  C   LIG    1        8.935   1.742  -0.153  0.00  0.00    +0.205 C 
ATOM     31  N   LIG    1       10.175   1.594  -0.617  0.00  0.00    -0.277 NA
ATOM     32  H   LIG    1       10.431   0.991  -1.386  0.00  0.00    +0.125 HD
ATOM     33  C   LIG    1       11.108   2.528  -0.003  0.00  0.00    +0.099 C 
ATOM     34  C   LIG    1       10.368   2.873   1.280  0.00  0.00    +0.099 C 
ATOM     35  N   LIG    1        8.996   2.571   0.898  0.00  0.00    -0.277 NA
ATOM     36  H   LIG    1        8.214   3.120   1.227  0.00  0.00    +0.125 HD
ENDBRANCH  28  30
ENDBRANCH  27  28
ENDBRANCH   8  26
TORSDOF 6
