REMARK  Name = DB17111
REMARK                            x       y       z     vdW  Elec       q    Type
REMARK                         _______ _______ _______ _____ _____    ______ ____
ROOT
ATOM      1  C   LIG    1       -0.602   1.760   0.221  0.00  0.00    +0.043 C 
ATOM      2  C   LIG    1        0.057   0.417   0.514  0.00  0.00    +0.088 C 
ATOM      3  C   LIG    1       -0.431  -0.375  -0.705  0.00  0.00    +0.309 C 
ATOM      4  O   LIG    1        0.061  -1.378  -1.218  0.00  0.00    -0.251 OA
ATOM      5  O   LIG    1       -1.508   0.238  -1.236  0.00  0.00    -0.460 OA
ATOM      6  C   LIG    1       -1.912   1.356  -0.451  0.00  0.00    +0.190 C 
ATOM      7  C   LIG    1       -2.568   2.450  -1.330  0.00  0.00    +0.087 C 
ATOM      8  C   LIG    1       -3.728   1.960  -2.239  0.00  0.00    +0.073 C 
ATOM      9  C   LIG    1       -4.654   0.877  -1.624  0.00  0.00    +0.042 C 
ATOM     10  C   LIG    1       -4.507   3.239  -2.502  0.00  0.00    +0.039 C 
ATOM     11  C   LIG    1       -4.487   3.985  -1.176  0.00  0.00    +0.034 C 
ATOM     12  C   LIG    1       -3.143   3.636  -0.527  0.00  0.00    -0.061 C 
ATOM     13  C   LIG    1       -2.611   4.339   0.510  0.00  0.00    -0.073 C 
ATOM     14  C   LIG    1       -3.394   5.486   1.151  0.00  0.00    +0.039 C 
ATOM     15  C   LIG    1       -1.224   4.103   1.110  0.00  0.00    +0.031 C 
ATOM     16  C   LIG    1       -0.805   2.661   1.447  0.00  0.00    +0.012 C 
ENDROOT
BRANCH   8  17
ATOM     17  O   LIG    1       -3.281   1.387  -3.455  0.00  0.00    -0.388 OA
ATOM     18  H   LIG    1       -2.665   0.680  -3.250  0.00  0.00    +0.210 HD
ENDBRANCH   8  17
BRANCH   2  19
ATOM     19  C   LIG    1        1.606   0.471   0.626  0.00  0.00    -0.065 C 
BRANCH  19  20
ATOM     20  N   LIG    1        2.244  -0.916   0.891  0.00  0.00    +0.377 N 
ATOM     21  H   LIG    1        1.923  -1.532   0.156  0.00  0.00    -0.083 HD
ATOM     22  C   LIG    1        3.780  -0.856   0.778  0.00  0.00    -0.097 C 
ATOM     23  C   LIG    1        1.815  -1.542   2.233  0.00  0.00    -0.097 C 
ENDBRANCH  19  20
ENDBRANCH   2  19
TORSDOF 3
