REMARK  Name = DB17969
REMARK                            x       y       z     vdW  Elec       q    Type
REMARK                         _______ _______ _______ _____ _____    ______ ____
ROOT
ATOM      1  CA  PHE A  1       -4.438  -4.242   2.585  0.00  0.00    +0.169 C 
ATOM      2  N   PHE A  1       -4.095  -3.900   3.970  0.00  0.00    -0.302 N 
ATOM      3  H   PHE A  1       -3.732  -4.684   4.495  0.00  0.00    +0.150 HD
ATOM      4  C   PHE A  1       -4.146  -2.717   4.608  0.00  0.00    +0.237 C 
ATOM      5  O   PHE A  1       -3.750  -2.611   5.768  0.00  0.00    -0.274 OA
ATOM      6  CA  PHE A  1       -4.699  -1.460   3.896  0.00  0.00    +0.187 C 
ATOM      7  N   PHE A  1       -3.682  -0.416   3.988  0.00  0.00    -0.300 N 
ATOM      8  H   PHE A  1       -2.966  -0.575   4.682  0.00  0.00    +0.150 HD
ATOM      9  C   PHE A  1       -3.664   0.724   3.282  0.00  0.00    +0.234 C 
ATOM     10  O   PHE A  1       -4.485   1.015   2.411  0.00  0.00    -0.274 OA
ATOM     11  CA  PHE A  1       -2.531   1.697   3.652  0.00  0.00    +0.159 C 
ATOM     12  N   PHE A  1       -2.523   2.857   2.760  0.00  0.00    -0.302 N 
ATOM     13  H   PHE A  1       -3.402   3.067   2.307  0.00  0.00    +0.150 HD
ATOM     14  C   PHE A  1       -1.452   3.626   2.516  0.00  0.00    +0.234 C 
ATOM     15  O   PHE A  1       -0.335   3.437   3.002  0.00  0.00    -0.274 OA
ATOM     16  CA  PHE A  1       -1.694   4.826   1.589  0.00  0.00    +0.163 C 
ATOM     17  N   PHE A  1       -0.482   5.162   0.837  0.00  0.00    -0.302 N 
ATOM     18  H   PHE A  1        0.132   5.801   1.320  0.00  0.00    +0.150 HD
ATOM     19  C   PHE A  1       -0.045   4.666  -0.335  0.00  0.00    +0.234 C 
ATOM     20  O   PHE A  1        1.067   4.962  -0.769  0.00  0.00    -0.274 OA
ATOM     21  CA  PHE A  1       -0.930   3.716  -1.169  0.00  0.00    +0.163 C 
ATOM     22  N   PHE A  1       -0.466   2.346  -0.977  0.00  0.00    -0.302 N 
ATOM     23  H   PHE A  1        0.479   2.155  -1.279  0.00  0.00    +0.150 HD
ATOM     24  C   PHE A  1       -1.193   1.355  -0.433  0.00  0.00    +0.235 C 
ATOM     25  O   PHE A  1       -2.360   1.484  -0.062  0.00  0.00    -0.274 OA
ATOM     26  CA  PHE A  1       -0.488  -0.007  -0.288  0.00  0.00    +0.169 C 
ATOM     27  CB  PHE A  1       -1.209  -0.983   0.671  0.00  0.00    +0.112 C 
ATOM     28  SG  PHE A  1       -0.769  -2.731   0.459  0.00  0.00    -0.091 S 
ATOM     29  SG  PHE A  1       -1.673  -3.669   2.024  0.00  0.00    -0.091 S 
ATOM     30  CB  PHE A  1       -3.432  -3.634   1.574  0.00  0.00    +0.112 C 
ENDROOT
BRANCH   1  33
ATOM     31  N   PHE A  1       -5.278  -6.203   1.406  0.00  0.00    -0.306 N 
ATOM     32  H   PHE A  1       -5.725  -5.518   0.814  0.00  0.00    +0.149 HD
ATOM     33  C   PHE A  1       -4.522  -5.769   2.429  0.00  0.00    +0.235 C 
ATOM     34  O   PHE A  1       -3.908  -6.507   3.200  0.00  0.00    -0.274 OA
BRANCH  31  35
ATOM     35  CA  PHE A  1       -5.494  -7.612   1.037  0.00  0.00    +0.126 C 
BRANCH  35  37
ATOM     36  CG2 PHE A  1       -6.640  -8.403   3.236  0.00  0.00    +0.039 C 
ATOM     37  CB  PHE A  1       -6.751  -8.242   1.709  0.00  0.00    +0.134 C 
BRANCH  37  38
ATOM     38  OG1 PHE A  1       -7.913  -7.481   1.431  0.00  0.00    -0.390 OA
ATOM     39  HG1 PHE A  1       -7.818  -6.620   1.844  0.00  0.00    +0.210 HD
ENDBRANCH  37  38
ENDBRANCH  35  37
BRANCH  35  40
ATOM     40  C   PHE A  1       -5.526  -7.790  -0.501  0.00  0.00    +0.180 C 
BRANCH  40  41
ATOM     41  O   PHE A  1       -4.375  -7.249  -1.123  0.00  0.00    -0.393 OA
ATOM     42  H   PHE A  1       -4.393  -6.294  -1.027  0.00  0.00    +0.209 HD
ENDBRANCH  40  41
ENDBRANCH  35  40
ENDBRANCH  31  35
ENDBRANCH   1  33
BRANCH  26  43
ATOM     43  N   PHE A  1        0.893   0.190   0.160  0.00  0.00    -0.302 N 
ATOM     44  H   PHE A  1        1.021   0.877   0.888  0.00  0.00    +0.150 HD
ATOM     45  C   PHE A  1        1.964  -0.446  -0.336  0.00  0.00    +0.234 C 
ATOM     46  O   PHE A  1        1.913  -1.304  -1.216  0.00  0.00    -0.274 OA
BRANCH  45  47
ATOM     47  CA  PHE A  1        3.323  -0.053   0.282  0.00  0.00    +0.163 C 
BRANCH  47  48
ATOM     48  N   PHE A  1        4.129   0.812  -0.588  0.00  0.00    -0.305 N 
ATOM     49  H   PHE A  1        4.305   1.731  -0.211  0.00  0.00    +0.149 HD
ATOM     50  C   UNK A  0        4.606   0.527  -1.818  0.00  0.00    +0.197 C 
ATOM     51  O   UNK A  0        4.479  -0.577  -2.342  0.00  0.00    -0.278 OA
BRANCH  50  52
ATOM     52  C   UNK A  0        5.363   1.621  -2.596  0.00  0.00    +0.019 C 
BRANCH  52  53
ATOM     53  N   UNK A  0        4.849   3.012  -2.320  0.00  0.00    +0.387 N 
ATOM     54  H   UNK A  0        4.821   3.056  -1.312  0.00  0.00    -0.081 HD
ATOM     55  C   UNK A  0        5.864   4.147  -2.651  0.00  0.00    -0.063 C 
ATOM     56  C   UNK A  0        6.489   4.162  -4.080  0.00  0.00    +0.066 C 
ATOM     57  N   UNK A  0        7.315   3.011  -4.484  0.00  0.00    -0.296 NA
ATOM     58  C   UNK A  0        7.692   3.123  -5.908  0.00  0.00    +0.066 C 
ATOM     59  C   UNK A  0        6.534   2.958  -6.923  0.00  0.00    -0.062 C 
ATOM     60  N   UNK A  0        5.699   1.674  -6.678  0.00  0.00    +0.388 N 
ATOM     61  H   UNK A  0        5.586   1.580  -5.677  0.00  0.00    -0.081 HD
ATOM     62  C   UNK A  0        4.277   1.783  -7.296  0.00  0.00    -0.062 C 
ATOM     63  C   UNK A  0        3.363   2.741  -6.493  0.00  0.00    +0.066 C 
ATOM     64  N   UNK A  0        3.298   2.401  -5.064  0.00  0.00    -0.296 NA
ATOM     65  C   UNK A  0        3.081   3.569  -4.201  0.00  0.00    +0.066 C 
ATOM     66  C   UNK A  0        3.369   3.325  -2.700  0.00  0.00    -0.063 C 
BRANCH  57  67
ATOM     67  C   UNK A  0        8.539   2.919  -3.656  0.00  0.00    +0.205 C 
BRANCH  67  68
ATOM     68  C   UNK A  0        9.273   1.552  -3.701  0.00  0.00    +0.319 C 
ATOM     69  O   UNK A  0       10.458   1.560  -3.299  0.00  0.00    -0.250 OA
BRANCH  68  70
ATOM     70  O   UNK A  0        8.668   0.521  -4.080  0.00  0.00    -0.480 OA
ATOM     71  H   UNK A  0        9.115  -0.302  -4.106  0.00  0.00    +0.295 HD
ENDBRANCH  68  70
ENDBRANCH  67  68
ENDBRANCH  57  67
BRANCH  64  72
ATOM     72  C   UNK A  0        2.453   1.219  -4.753  0.00  0.00    +0.205 C 
BRANCH  72  73
ATOM     73  C   UNK A  0        0.907   1.404  -4.733  0.00  0.00    +0.319 C 
ATOM     74  O   UNK A  0        0.357   2.265  -5.458  0.00  0.00    -0.250 OA
BRANCH  73  75
ATOM     75  O   UNK A  0        0.274   0.631  -3.979  0.00  0.00    -0.480 OA
ATOM     76  H   UNK A  0       -0.660   0.693  -3.922  0.00  0.00    +0.295 HD
ENDBRANCH  73  75
ENDBRANCH  72  73
ENDBRANCH  64  72
BRANCH  60  77
ATOM     77  C   UNK A  0        6.452   0.401  -7.164  0.00  0.00    +0.044 C 
BRANCH  77  78
ATOM     78  C   UNK A  0        6.024  -0.865  -6.381  0.00  0.00    +0.288 C 
ATOM     79  O   UNK A  0        6.549  -1.932  -6.766  0.00  0.00    -0.253 OA
BRANCH  78  80
ATOM     80  O   UNK A  0        5.210  -0.791  -5.431  0.00  0.00    -0.482 OA
ATOM     81  H   UNK A  0        4.960  -1.565  -4.966  0.00  0.00    +0.295 HD
ENDBRANCH  78  80
ENDBRANCH  77  78
ENDBRANCH  60  77
ENDBRANCH  52  53
ENDBRANCH  50  52
ENDBRANCH  47  48
BRANCH  47  82
ATOM     82  CB  PHE A  1        4.149  -1.256   0.806  0.00  0.00    +0.067 C 
BRANCH  82  83
ATOM     83  CG  PHE A  1        3.397  -2.242   1.686  0.00  0.00    -0.045 A 
ATOM     84  CD2 PHE A  1        2.910  -3.454   1.150  0.00  0.00    +0.004 A 
ATOM     85  CE2 PHE A  1        2.158  -4.311   1.942  0.00  0.00    +0.000 A 
ATOM     86  CZ  PHE A  1        1.857  -3.968   3.254  0.00  0.00    +0.000 A 
ATOM     87  CE1 PHE A  1        2.299  -2.762   3.785  0.00  0.00    +0.000 A 
ATOM     88  CD1 PHE A  1        3.057  -1.894   3.011  0.00  0.00    +0.004 A 
ENDBRANCH  82  83
ENDBRANCH  47  82
ENDBRANCH  45  47
ENDBRANCH  26  43
BRANCH   6  89
ATOM     89  CB  PHE A  1       -6.053  -1.012   4.529  0.00  0.00    +0.141 C 
ATOM     90  CG2 PHE A  1       -7.167  -2.067   4.409  0.00  0.00    +0.040 C 
BRANCH  89  91
ATOM     91  OG1 PHE A  1       -5.926  -0.688   5.903  0.00  0.00    -0.390 OA
ATOM     92  HG1 PHE A  1       -5.681  -1.483   6.383  0.00  0.00    +0.210 HD
ENDBRANCH  89  91
ENDBRANCH   6  89
BRANCH  11  93
ATOM     93  CB  PHE A  1       -2.604   2.172   5.127  0.00  0.00    +0.032 C 
BRANCH  93  94
ATOM     94  CG  PHE A  1       -3.921   2.870   5.523  0.00  0.00    +0.000 C 
BRANCH  94  95
ATOM     95  CD  PHE A  1       -3.904   3.373   6.977  0.00  0.00    -0.019 C 
BRANCH  95  96
ATOM     96  CE  PHE A  1       -5.221   4.030   7.431  0.00  0.00    -0.086 C 
BRANCH  96  97
ATOM     97  NZ  PHE A  1       -5.495   5.301   6.733  0.00  0.00    +0.378 N 
ATOM     98  HZ1 PHE A  1       -4.737   5.948   6.896  0.00  0.00    -0.090 HD
ATOM     99  HZ2 PHE A  1       -5.583   5.129   5.742  0.00  0.00    -0.090 HD
ATOM    100  HZ3 PHE A  1       -6.356   5.699   7.080  0.00  0.00    -0.090 HD
ENDBRANCH  96  97
ENDBRANCH  95  96
ENDBRANCH  94  95
ENDBRANCH  93  94
ENDBRANCH  11  93
BRANCH  16 101
ATOM    101  CB  PHE A  1       -2.127   6.062   2.400  0.00  0.00    +0.069 C 
BRANCH 101 102
ATOM    102  CG  PHE A  1       -2.470   7.268   1.575  0.00  0.00    -0.020 A 
ATOM    103  CD2 PHE A  1       -3.666   7.502   0.769  0.00  0.00    +0.003 A 
ATOM    104  CE3 PHE A  1       -4.851   6.773   0.515  0.00  0.00    +0.010 A 
ATOM    105  CZ3 PHE A  1       -5.857   7.284  -0.330  0.00  0.00    +0.001 A 
ATOM    106  CH2 PHE A  1       -5.701   8.542  -0.945  0.00  0.00    +0.002 A 
ATOM    107  CZ2 PHE A  1       -4.531   9.290  -0.722  0.00  0.00    +0.026 A 
ATOM    108  CE2 PHE A  1       -3.533   8.768   0.120  0.00  0.00    +0.047 A 
ATOM    109  NE1 PHE A  1       -2.296   9.229   0.521  0.00  0.00    -0.360 N 
ATOM    110  HE1 PHE A  1       -1.874  10.102   0.239  0.00  0.00    +0.165 HD
ATOM    111  CD1 PHE A  1       -1.669   8.338   1.368  0.00  0.00    +0.087 A 
ENDBRANCH 101 102
ENDBRANCH  16 101
BRANCH  21 112
ATOM    112  CB  PHE A  1       -0.895   4.053  -2.675  0.00  0.00    +0.067 C 
BRANCH 112 113
ATOM    113  CG  PHE A  1       -1.382   5.452  -3.013  0.00  0.00    -0.045 A 
ATOM    114  CD2 PHE A  1       -0.464   6.464  -3.365  0.00  0.00    +0.007 A 
ATOM    115  CE2 PHE A  1       -0.919   7.769  -3.636  0.00  0.00    +0.045 A 
ATOM    116  CZ  PHE A  1       -2.295   8.064  -3.563  0.00  0.00    +0.117 A 
ATOM    117  CE1 PHE A  1       -3.215   7.052  -3.226  0.00  0.00    +0.045 A 
ATOM    118  CD1 PHE A  1       -2.759   5.749  -2.949  0.00  0.00    +0.007 A 
BRANCH 116 119
ATOM    119  OH  PHE A  1       -2.737   9.329  -3.816  0.00  0.00    -0.507 OA
ATOM    120  HH  PHE A  1       -2.028   9.937  -4.036  0.00  0.00    +0.292 HD
ENDBRANCH 116 119
ENDBRANCH 112 113
ENDBRANCH  21 112
TORSDOF 34
