REMARK  Name = DB17709
REMARK                            x       y       z     vdW  Elec       q    Type
REMARK                         _______ _______ _______ _____ _____    ______ ____
ROOT
ATOM      1  C   LIG    1        1.100  -0.368  -1.057  0.00  0.00    +0.257 C 
ATOM      2  O   LIG    1        1.921   0.516  -1.311  0.00  0.00    -0.269 OA
ATOM      3  N   LIG    1        1.388  -1.426  -0.239  0.00  0.00    -0.295 N 
ATOM      4  C   LIG    1        0.613  -2.684  -0.233  0.00  0.00    +0.135 C 
ATOM      5  C   LIG    1        1.256  -3.602  -1.303  0.00  0.00    +0.127 C 
ATOM      6  C   LIG    1        2.765  -3.840  -1.002  0.00  0.00    +0.030 C 
ATOM      7  C   LIG    1        3.508  -2.508  -0.750  0.00  0.00    +0.021 C 
ATOM      8  C   LIG    1        2.762  -1.608   0.267  0.00  0.00    +0.108 C 
ENDROOT
BRANCH   5   9
ATOM      9  N   LIG    1        0.481  -4.850  -1.327  0.00  0.00    -0.241 N 
ATOM     10  N   LIG    1        0.721  -5.846  -0.444  0.00  0.00    -0.168 NA
ATOM     11  C   LIG    1       -0.164  -6.798  -0.637  0.00  0.00    +0.108 A 
ATOM     12  C   LIG    1       -1.097  -6.402  -1.656  0.00  0.00    +0.086 A 
ATOM     13  C   LIG    1       -2.262  -6.877  -2.293  0.00  0.00    +0.131 A 
ATOM     14  N   LIG    1       -2.880  -6.142  -3.253  0.00  0.00    -0.220 NA
ATOM     15  C   LIG    1       -2.334  -4.937  -3.558  0.00  0.00    +0.225 A 
ATOM     16  N   LIG    1       -1.229  -4.363  -3.011  0.00  0.00    -0.216 NA
ATOM     17  C   LIG    1       -0.647  -5.128  -2.077  0.00  0.00    +0.164 A 
BRANCH  11  18
ATOM     18  C   LIG    1       -0.114  -8.065   0.153  0.00  0.00    +0.038 A 
ATOM     19  C   LIG    1        0.061  -8.060   1.546  0.00  0.00    +0.136 A 
ATOM     20  F   LIG    1        0.200  -6.896   2.223  0.00  0.00    -0.205 F 
ATOM     21  C   LIG    1        0.085  -9.261   2.256  0.00  0.00    +0.085 A 
ATOM     22  C   LIG    1       -0.082 -10.485   1.594  0.00  0.00    +0.131 A 
ATOM     23  C   LIG    1       -0.242 -10.489   0.208  0.00  0.00    +0.047 A 
ATOM     24  C   LIG    1       -0.265  -9.291  -0.505  0.00  0.00    +0.016 A 
BRANCH  22  25
ATOM     25  O   LIG    1       -0.046 -11.702   2.245  0.00  0.00    -0.456 OA
BRANCH  25  26
ATOM     26  C   LIG    1       -0.513 -11.839   3.534  0.00  0.00    +0.128 A 
ATOM     27  C   LIG    1        0.263 -12.555   4.446  0.00  0.00    +0.046 A 
ATOM     28  C   LIG    1       -0.183 -12.735   5.753  0.00  0.00    +0.004 A 
ATOM     29  C   LIG    1       -1.412 -12.206   6.141  0.00  0.00    +0.000 A 
ATOM     30  C   LIG    1       -2.201 -11.502   5.234  0.00  0.00    +0.004 A 
ATOM     31  C   LIG    1       -1.755 -11.323   3.927  0.00  0.00    +0.046 A 
ENDBRANCH  25  26
ENDBRANCH  22  25
ENDBRANCH  11  18
BRANCH  13  32
ATOM     32  N   LIG    1       -2.845  -8.096  -1.956  0.00  0.00    -0.342 N 
ATOM     33  H   LIG    1       -3.684  -8.390  -2.434  0.00  0.00    +0.144 HD
ATOM     34  H   LIG    1       -2.425  -8.668  -1.237  0.00  0.00    +0.144 HD
ENDBRANCH  13  32
ENDBRANCH   5   9
BRANCH   1  36
ATOM     35  C   LIG    1       -1.322  -0.214  -0.853  0.00  0.00    +0.018 C 
ATOM     36  C   LIG    1       -0.223  -0.291  -1.644  0.00  0.00    +0.111 C 
BRANCH  35  38
ATOM     37  C   LIG    1       -3.231  -1.592  -1.615  0.00  0.00    +0.032 C 
ATOM     38  C   LIG    1       -2.794  -0.136  -1.292  0.00  0.00    +0.036 C 
ATOM     39  C   LIG    1       -3.657   0.377  -0.105  0.00  0.00    +0.032 C 
BRANCH  38  40
ATOM     40  N   LIG    1       -3.004   0.722  -2.495  0.00  0.00    -0.297 NA
ATOM     41  C   LIG    1       -2.537   2.114  -2.327  0.00  0.00    +0.066 C 
ATOM     42  C   LIG    1       -2.437   2.840  -3.689  0.00  0.00    -0.063 C 
ATOM     43  N   LIG    1       -3.807   2.847  -4.407  0.00  0.00    +0.386 N 
ATOM     44  H   LIG    1       -3.650   3.149  -5.359  0.00  0.00    -0.081 HD
ATOM     45  C   LIG    1       -4.380   1.411  -4.460  0.00  0.00    -0.063 C 
ATOM     46  C   LIG    1       -4.369   0.757  -3.058  0.00  0.00    +0.066 C 
BRANCH  43  47
ATOM     47  C   LIG    1       -4.800   3.863  -3.790  0.00  0.00    -0.016 C 
ATOM     48  C   LIG    1       -4.443   5.346  -3.955  0.00  0.00    +0.147 C 
ATOM     49  O   LIG    1       -5.731   5.605  -4.658  0.00  0.00    -0.383 OA
ATOM     50  C   LIG    1       -6.067   4.154  -4.604  0.00  0.00    +0.147 C 
ENDBRANCH  43  47
ENDBRANCH  38  40
ENDBRANCH  35  38
BRANCH  36  51
ATOM     51  C   LIG    1       -0.265  -0.309  -3.072  0.00  0.00    +0.104 C 
ATOM     52  N   LIG    1       -0.304  -0.342  -4.229  0.00  0.00    -0.191 NA
ENDBRANCH  36  51
ENDBRANCH   1  36
TORSDOF 10
