REMARK  Name = DB17938
REMARK                            x       y       z     vdW  Elec       q    Type
REMARK                         _______ _______ _______ _____ _____    ______ ____
ROOT
ATOM      1  C   LIG    1        3.186   3.880   5.993  0.00  0.00    +0.162 C 
ATOM      2  C   LIG    1        2.150   4.679   5.175  0.00  0.00    +0.234 C 
ATOM      3  O   LIG    1        1.474   5.522   5.763  0.00  0.00    -0.274 OA
ATOM      4  N   LIG    1        2.083   4.428   3.853  0.00  0.00    -0.302 N 
ATOM      5  H   LIG    1        2.672   3.694   3.489  0.00  0.00    +0.150 HD
ATOM      6  C   LIG    1        1.319   5.144   2.825  0.00  0.00    +0.159 C 
ATOM      7  C   LIG    1       -0.204   4.888   2.906  0.00  0.00    +0.234 C 
ATOM      8  O   LIG    1       -0.803   5.260   3.913  0.00  0.00    -0.274 OA
ATOM      9  N   LIG    1       -0.877   4.314   1.886  0.00  0.00    -0.302 N 
ATOM     10  H   LIG    1       -1.873   4.229   2.025  0.00  0.00    +0.150 HD
ATOM     11  C   LIG    1       -0.437   3.710   0.620  0.00  0.00    +0.163 C 
ATOM     12  C   LIG    1        0.365   2.401   0.784  0.00  0.00    +0.234 C 
ATOM     13  O   LIG    1        1.326   2.349   1.548  0.00  0.00    -0.274 OA
ATOM     14  N   LIG    1       -0.056   1.368   0.030  0.00  0.00    -0.302 N 
ATOM     15  H   LIG    1       -0.839   1.519  -0.589  0.00  0.00    +0.150 HD
ATOM     16  C   LIG    1        0.432  -0.013   0.073  0.00  0.00    +0.159 C 
ATOM     17  C   LIG    1       -0.010  -0.691   1.385  0.00  0.00    +0.233 C 
ATOM     18  O   LIG    1       -1.154  -1.140   1.457  0.00  0.00    -0.274 OA
ATOM     19  N   LIG    1        0.874  -0.728   2.397  0.00  0.00    -0.314 N 
ATOM     20  H   LIG    1        1.795  -0.338   2.261  0.00  0.00    +0.149 HD
ATOM     21  C   LIG    1        0.562  -1.224   3.736  0.00  0.00    +0.104 C 
ATOM     22  C   LIG    1       -0.172  -0.189   4.623  0.00  0.00    +0.021 C 
ATOM     23  C   LIG    1        0.584   1.142   4.841  0.00  0.00    +0.033 C 
ATOM     24  C   LIG    1        1.869   1.017   5.694  0.00  0.00    +0.159 C 
ATOM     25  C   LIG    1        3.119   1.545   4.938  0.00  0.00    +0.237 C 
ATOM     26  O   LIG    1        3.559   0.812   4.050  0.00  0.00    -0.274 OA
ATOM     27  N   LIG    1        3.751   2.691   5.309  0.00  0.00    -0.288 N 
ATOM     28  C   LIG    1        5.115   2.972   4.844  0.00  0.00    +0.109 C 
ATOM     29  C   LIG    1        5.359   4.451   5.117  0.00  0.00    +0.021 C 
ATOM     30  C   LIG    1        4.429   4.738   6.281  0.00  0.00    +0.033 C 
ENDROOT
BRANCH  24  31
ATOM     31  N   LIG    1        1.663   1.458   7.072  0.00  0.00    -0.304 N 
ATOM     32  H   LIG    1        0.888   2.089   7.214  0.00  0.00    +0.149 HD
ATOM     33  C   LIG    1        2.458   1.158   8.115  0.00  0.00    +0.214 C 
ATOM     34  O   LIG    1        3.417   0.389   8.038  0.00  0.00    -0.276 OA
BRANCH  33  35
ATOM     35  C   LIG    1        2.135   1.854   9.442  0.00  0.00    +0.100 C 
BRANCH  35  36
ATOM     36  C   LIG    1        3.329   2.669   9.988  0.00  0.00    +0.044 C 
BRANCH  36  37
ATOM     37  C   LIG    1        2.895   3.799  10.909  0.00  0.00    -0.047 A 
ATOM     38  C   LIG    1        2.748   3.568  12.280  0.00  0.00    +0.003 A 
ATOM     39  C   LIG    1        2.342   4.604  13.118  0.00  0.00    +0.000 A 
ATOM     40  C   LIG    1        2.085   5.865  12.582  0.00  0.00    +0.000 A 
ATOM     41  C   LIG    1        2.229   6.101  11.217  0.00  0.00    +0.000 A 
ATOM     42  C   LIG    1        2.635   5.066  10.378  0.00  0.00    +0.003 A 
ENDBRANCH  36  37
ENDBRANCH  35  36
ENDBRANCH  33  35
ENDBRANCH  24  31
BRANCH   6  43
ATOM     43  C   LIG    1        1.623   6.660   2.768  0.00  0.00    +0.035 C 
BRANCH  43  44
ATOM     44  C   LIG    1        3.111   6.985   2.456  0.00  0.00    -0.009 C 
ATOM     45  C   LIG    1        3.291   7.568   1.035  0.00  0.00    +0.003 C 
ATOM     46  C   LIG    1        4.780   7.803   0.709  0.00  0.00    +0.000 C 
ATOM     47  C   LIG    1        5.454   8.714   1.760  0.00  0.00    +0.000 C 
ATOM     48  C   LIG    1        5.205   8.233   3.206  0.00  0.00    +0.000 C 
ATOM     49  C   LIG    1        3.705   7.989   3.471  0.00  0.00    +0.003 C 
ENDBRANCH  43  44
ENDBRANCH   6  43
BRANCH  11  50
ATOM     50  C   LIG    1        0.165   4.739  -0.376  0.00  0.00    +0.069 C 
BRANCH  50  51
ATOM     51  C   LIG    1        0.872   4.172  -1.575  0.00  0.00    -0.020 A 
ATOM     52  C   LIG    1        0.301   3.491  -2.735  0.00  0.00    +0.003 A 
ATOM     53  C   LIG    1       -1.013   3.189  -3.163  0.00  0.00    +0.010 A 
ATOM     54  C   LIG    1       -1.248   2.488  -4.364  0.00  0.00    +0.001 A 
ATOM     55  C   LIG    1       -0.169   2.071  -5.168  0.00  0.00    +0.002 A 
ATOM     56  C   LIG    1        1.151   2.351  -4.771  0.00  0.00    +0.026 A 
ATOM     57  C   LIG    1        1.372   3.049  -3.570  0.00  0.00    +0.047 A 
ATOM     58  N   LIG    1        2.513   3.455  -2.910  0.00  0.00    -0.360 N 
ATOM     59  H   LIG    1        3.461   3.300  -3.221  0.00  0.00    +0.165 HD
ATOM     60  C   LIG    1        2.215   4.107  -1.731  0.00  0.00    +0.087 A 
ENDBRANCH  50  51
ENDBRANCH  11  50
BRANCH  16  61
ATOM     61  C   LIG    1        1.946  -0.097  -0.259  0.00  0.00    +0.033 C 
BRANCH  61  62
ATOM     62  C   LIG    1        2.474  -1.530  -0.450  0.00  0.00    +0.017 C 
BRANCH  62  63
ATOM     63  C   LIG    1        3.964  -1.552  -0.827  0.00  0.00    +0.084 C 
BRANCH  63  64
ATOM     64  N   LIG    1        4.508  -2.920  -0.841  0.00  0.00    -0.283 NA
ATOM     65  H   LIG    1        3.836  -3.658  -0.686  0.00  0.00    +0.125 HD
BRANCH  64  66
ATOM     66  C   LIG    1        5.792  -3.278  -1.046  0.00  0.00    +0.167 C 
BRANCH  66  67
ATOM     67  N   LIG    1        6.107  -4.581  -1.033  0.00  0.00    -0.297 NA
ATOM     68  H   LIG    1        5.391  -5.273  -0.870  0.00  0.00    +0.121 HD
ATOM     69  H   LIG    1        7.062  -4.875  -1.184  0.00  0.00    +0.121 HD
ENDBRANCH  66  67
BRANCH  66  70
ATOM     70  N   LIG    1        6.765  -2.377  -1.264  0.00  0.00    -0.297 NA
ATOM     71  H   LIG    1        6.548  -1.391  -1.274  0.00  0.00    +0.121 HD
ATOM     72  H   LIG    1        7.717  -2.681  -1.414  0.00  0.00    +0.121 HD
ENDBRANCH  66  70
ENDBRANCH  64  66
ENDBRANCH  63  64
ENDBRANCH  62  63
ENDBRANCH  61  62
ENDBRANCH  16  61
TORSDOF 15
