REMARK  Name = DB17758
REMARK                            x       y       z     vdW  Elec       q    Type
REMARK                         _______ _______ _______ _____ _____    ______ ____
ROOT
ATOM      1  C   LIG    1        1.493  -0.004  -0.004  0.00  0.00    +0.324 C 
ATOM      2  F   LIG    1        1.943   0.647   1.075  0.00  0.00    -0.195 F 
ATOM      3  F   LIG    1        2.032   0.638  -1.048  0.00  0.00    -0.195 F 
ENDROOT
BRANCH   1   4
ATOM      4  C   LIG    1        2.079  -1.427   0.036  0.00  0.00    +0.113 A 
ATOM      5  N   LIG    1        2.248  -2.051  -1.162  0.00  0.00    -0.253 NA
ATOM      6  C   LIG    1        2.737  -3.316  -1.168  0.00  0.00    +0.119 A 
ATOM      7  C   LIG    1        3.084  -4.023  -0.008  0.00  0.00    +0.000 A 
ATOM      8  C   LIG    1        2.912  -3.354   1.214  0.00  0.00    +0.012 A 
ATOM      9  C   LIG    1        2.410  -2.052   1.244  0.00  0.00    +0.030 A 
BRANCH   7  10
ATOM     10  C   LIG    1        3.603  -5.422  -0.069  0.00  0.00    -0.016 A 
ATOM     11  C   LIG    1        3.296  -6.345   0.939  0.00  0.00    +0.012 A 
ATOM     12  C   LIG    1        3.770  -7.652   0.881  0.00  0.00    +0.046 A 
ATOM     13  C   LIG    1        4.568  -8.068  -0.194  0.00  0.00    +0.130 A 
ATOM     14  C   LIG    1        4.883  -7.150  -1.195  0.00  0.00    +0.046 A 
ATOM     15  C   LIG    1        4.405  -5.843  -1.136  0.00  0.00    +0.012 A 
BRANCH  13  16
ATOM     16  O   LIG    1        5.084  -9.342  -0.346  0.00  0.00    -0.406 OA
BRANCH  16  17
ATOM     17  C   LIG    1        4.742 -10.379   0.573  0.00  0.00    +0.575 C 
ATOM     18  F   LIG    1        3.426 -10.606   0.594  0.00  0.00    -0.133 F 
ATOM     19  F   LIG    1        5.198 -10.122   1.800  0.00  0.00    -0.133 F 
ATOM     20  F   LIG    1        5.333 -11.495   0.149  0.00  0.00    -0.133 F 
ENDBRANCH  16  17
ENDBRANCH  13  16
ENDBRANCH   7  10
ENDBRANCH   1   4
BRANCH   1  21
ATOM     21  C   LIG    1       -0.079   0.038  -0.050  0.00  0.00    +0.182 C 
BRANCH  21  22
ATOM     22  C   LIG    1       -0.617  -0.657  -1.334  0.00  0.00    +0.027 A 
ATOM     23  C   LIG    1       -0.708   0.027  -2.564  0.00  0.00    +0.132 A 
ATOM     24  F   LIG    1       -0.332   1.322  -2.677  0.00  0.00    -0.205 F 
ATOM     25  C   LIG    1       -1.174  -0.621  -3.708  0.00  0.00    +0.077 A 
ATOM     26  C   LIG    1       -1.542  -1.963  -3.656  0.00  0.00    +0.126 A 
ATOM     27  F   LIG    1       -1.988  -2.588  -4.769  0.00  0.00    -0.205 F 
ATOM     28  C   LIG    1       -1.439  -2.662  -2.457  0.00  0.00    +0.039 A 
ATOM     29  C   LIG    1       -0.977  -2.016  -1.312  0.00  0.00    +0.012 A 
ENDBRANCH  21  22
BRANCH  21  30
ATOM     30  O   LIG    1       -0.420   1.421  -0.028  0.00  0.00    -0.376 OA
ATOM     31  H   LIG    1       -0.030   1.823   0.752  0.00  0.00    +0.211 HD
ENDBRANCH  21  30
BRANCH  21  32
ATOM     32  C   LIG    1       -0.697  -0.528   1.282  0.00  0.00    +0.193 C 
BRANCH  32  33
ATOM     33  N   LIG    1       -2.163  -0.569   1.317  0.00  0.00    -0.229 N 
ATOM     34  N   LIG    1       -2.898   0.549   1.346  0.00  0.00    -0.044 NA
ATOM     35  N   LIG    1       -4.207   0.107   1.388  0.00  0.00    -0.023 NA
ATOM     36  N   LIG    1       -4.247  -1.285   1.399  0.00  0.00    -0.117 NA
ATOM     37  C   LIG    1       -2.994  -1.661   1.361  0.00  0.00    +0.244 A 
ENDBRANCH  32  33
ENDBRANCH  21  32
ENDBRANCH   1  21
TORSDOF 9
