REMARK  Name = DB17837
REMARK                            x       y       z     vdW  Elec       q    Type
REMARK                         _______ _______ _______ _____ _____    ______ ____
ROOT
ATOM      1  CA  LEU A  1        1.594  -0.071   0.071  0.00  0.00    +0.182 C 
ENDROOT
BRANCH   1   2
ATOM      2  N   LEU A  1        2.221   0.493   1.279  0.00  0.00    -0.303 N 
ATOM      3  H   LEU A  1        2.371  -0.169   2.027  0.00  0.00    +0.149 HD
ATOM      4  C   UNK A  0        2.647   1.757   1.434  0.00  0.00    +0.211 C 
ATOM      5  O   UNK A  0        2.568   2.619   0.560  0.00  0.00    -0.276 OA
ATOM      6  C   UNK A  0        3.273   2.104   2.781  0.00  0.00    +0.109 C 
ENDBRANCH   1   2
BRANCH   1   7
ATOM      7  C   LEU A  1        1.904  -1.617   0.021  0.00  0.00    +0.325 C 
ATOM      8  OXT LEU A  1        2.331  -2.023  -1.084  0.00  0.00    -0.249 OA
BRANCH   7   9
ATOM      9  O   LEU A  1        1.656  -2.280   1.059  0.00  0.00    -0.479 OA
ATOM     10  H   LEU A  1        1.824  -3.202   1.077  0.00  0.00    +0.295 HD
ENDBRANCH   7   9
ENDBRANCH   1   7
BRANCH   1  11
ATOM     11  CB  LEU A  1        0.040   0.102   0.103  0.00  0.00    +0.036 C 
BRANCH  11  13
ATOM     12  CD1 LEU A  1       -2.019   1.598   0.005  0.00  0.00    +0.007 C 
ATOM     13  CG  LEU A  1       -0.490   1.522  -0.207  0.00  0.00    -0.015 C 
ATOM     14  CD2 LEU A  1       -0.070   2.017  -1.609  0.00  0.00    +0.007 C 
ENDBRANCH  11  13
ENDBRANCH   1  11
TORSDOF 5
