REMARK  Name = DB17297
REMARK                            x       y       z     vdW  Elec       q    Type
REMARK                         _______ _______ _______ _____ _____    ______ ____
ROOT
ATOM      1  C   LIG    1       -2.372  -1.661  -0.544  0.00  0.00    +0.026 A 
ATOM      2  C   LIG    1       -3.067  -0.768  -1.378  0.00  0.00    +0.149 A 
ATOM      3  F   LIG    1       -4.391  -0.918  -1.619  0.00  0.00    -0.203 F 
ATOM      4  C   LIG    1       -2.378   0.301  -1.951  0.00  0.00    +0.151 A 
ATOM      5  N   LIG    1       -1.058   0.526  -1.740  0.00  0.00    -0.238 NA
ATOM      6  C   LIG    1       -0.384  -0.336  -0.935  0.00  0.00    +0.121 A 
ATOM      7  C   LIG    1       -1.008  -1.424  -0.315  0.00  0.00    +0.055 A 
ENDROOT
BRANCH   1  14
ATOM      8  C   LIG    1       -3.711  -3.805  -0.666  0.00  0.00    +0.131 A 
ATOM      9  C   LIG    1       -4.339  -4.877  -0.006  0.00  0.00    +0.084 A 
ATOM     10  C   LIG    1       -4.302  -4.980   1.382  0.00  0.00    +0.127 A 
ATOM     11  F   LIG    1       -4.910  -6.017   2.001  0.00  0.00    -0.205 F 
ATOM     12  C   LIG    1       -3.637  -4.016   2.132  0.00  0.00    +0.039 A 
ATOM     13  C   LIG    1       -3.014  -2.948   1.492  0.00  0.00    +0.015 A 
ATOM     14  C   LIG    1       -3.048  -2.824   0.097  0.00  0.00    +0.027 A 
BRANCH   8  16
ATOM     15  C   LIG    1       -4.352  -4.636  -2.857  0.00  0.00    +0.277 C 
ATOM     16  O   LIG    1       -3.693  -3.671  -2.044  0.00  0.00    -0.494 OA
ENDBRANCH   8  16
ENDBRANCH   1  14
BRANCH   6  17
ATOM     17  N   LIG    1        1.002  -0.085  -0.681  0.00  0.00    -0.308 N 
ATOM     18  H   LIG    1        1.405  -0.638   0.060  0.00  0.00    +0.149 HD
BRANCH  17  19
ATOM     19  C   LIG    1        1.908   0.810  -1.334  0.00  0.00    +0.124 C 
ATOM     20  C   LIG    1        1.701   1.413  -2.587  0.00  0.00    +0.046 C 
ATOM     21  C   LIG    1        2.674   2.267  -3.123  0.00  0.00    +0.001 C 
ATOM     22  C   LIG    1        3.853   2.498  -2.405  0.00  0.00    +0.021 C 
ATOM     23  C   LIG    1        4.035   1.870  -1.173  0.00  0.00    +0.077 C 
ATOM     24  N   LIG    1        3.071   1.059  -0.695  0.00  0.00    -0.288 NA
ATOM     25  H   LIG    1        3.223   0.617   0.200  0.00  0.00    +0.124 HD
BRANCH  21  26
ATOM     26  C   LIG    1        2.454   2.925  -4.474  0.00  0.00    +0.121 C 
BRANCH  26  27
ATOM     27  S   LIG    1        1.435   4.511  -4.330  0.00  0.00    +0.043 S 
ATOM     28  O   LIG    1        0.113   4.205  -3.775  0.00  0.00    -0.248 OA
ATOM     29  N   LIG    1        2.422   5.498  -3.695  0.00  0.00    -0.252 NA
ATOM     30  H   LIG    1        2.632   6.287  -4.289  0.00  0.00    +0.197 HD
ATOM     31  C   LIG    1        1.266   5.168  -6.089  0.00  0.00    +0.132 C 
ENDBRANCH  26  27
ENDBRANCH  21  26
ENDBRANCH  17  19
ENDBRANCH   6  17
TORSDOF 6
