REMARK  Name = DB17058
REMARK                            x       y       z     vdW  Elec       q    Type
REMARK                         _______ _______ _______ _____ _____    ______ ____
ROOT
ATOM      1  C   LIG    1        1.369   0.129  -0.145  0.00  0.00    +0.086 A 
ATOM      2  S   LIG    1        2.289   1.107   0.974  0.00  0.00    -0.073 S 
ATOM      3  C   LIG    1        3.788   0.314   0.561  0.00  0.00    +0.022 A 
ATOM      4  C   LIG    1        3.545  -0.657  -0.409  0.00  0.00    +0.031 A 
ATOM      5  C   LIG    1        2.197  -0.785  -0.828  0.00  0.00    +0.066 A 
ENDROOT
BRANCH   1  10
ATOM      6  N   LIG    1       -2.100   0.998  -0.084  0.00  0.00    -0.313 N 
ATOM      7  H   LIG    1       -2.337   0.304  -0.778  0.00  0.00    +0.146 HD
ATOM      8  H   LIG    1       -2.826   1.582   0.303  0.00  0.00    +0.146 HD
ATOM      9  C   LIG    1       -0.839   1.142   0.325  0.00  0.00    +0.302 C 
ATOM     10  N   LIG    1       -0.012   0.280  -0.303  0.00  0.00    -0.263 N 
ATOM     11  H   LIG    1       -0.431  -0.344  -0.977  0.00  0.00    +0.157 HD
ATOM     12  O   LIG    1       -0.520   1.976   1.173  0.00  0.00    -0.253 OA
ENDBRANCH   1  10
BRANCH   3  13
ATOM     13  C   LIG    1        5.086   0.711   1.204  0.00  0.00    -0.011 A 
ATOM     14  C   LIG    1        5.129   1.409   2.420  0.00  0.00    +0.012 A 
ATOM     15  C   LIG    1        6.351   1.757   2.991  0.00  0.00    +0.039 A 
ATOM     16  C   LIG    1        7.537   1.408   2.352  0.00  0.00    +0.123 A 
ATOM     17  F   LIG    1        8.723   1.746   2.906  0.00  0.00    -0.205 F 
ATOM     18  C   LIG    1        7.511   0.712   1.147  0.00  0.00    +0.039 A 
ATOM     19  C   LIG    1        6.289   0.364   0.576  0.00  0.00    +0.012 A 
ENDBRANCH   3  13
BRANCH   5  20
ATOM     20  C   LIG    1        1.739  -1.744  -1.828  0.00  0.00    +0.244 C 
ATOM     21  O   LIG    1        0.557  -1.847  -2.155  0.00  0.00    -0.270 OA
ATOM     22  N   LIG    1        2.681  -2.516  -2.382  0.00  0.00    -0.325 N 
ATOM     23  H   LIG    1        2.428  -3.199  -3.081  0.00  0.00    +0.145 HD
ATOM     24  H   LIG    1        3.648  -2.418  -2.111  0.00  0.00    +0.145 HD
ENDBRANCH   5  20
TORSDOF 3
