REMARK  Name = DB17872
REMARK                            x       y       z     vdW  Elec       q    Type
REMARK                         _______ _______ _______ _____ _____    ______ ____
ROOT
ATOM      1  C   PRO A  1        0.672   2.630   1.448  0.00  0.00    +0.237 C 
ATOM      2  N   PRO A  1        0.695   2.126   0.189  0.00  0.00    -0.288 N 
ATOM      3  CA  PRO A  1        0.879   0.689  -0.083  0.00  0.00    +0.162 C 
ATOM      4  CB  PRO A  1        0.462   0.549  -1.557  0.00  0.00    +0.033 C 
ATOM      5  CG  PRO A  1        0.804   1.891  -2.185  0.00  0.00    +0.021 C 
ATOM      6  CD  PRO A  1        0.545   2.886  -1.057  0.00  0.00    +0.109 C 
ATOM      7  O   PRO A  1        0.752   1.933   2.462  0.00  0.00    -0.274 OA
ENDROOT
BRANCH   3   8
ATOM      8  C   PRO A  1        2.328   0.238   0.193  0.00  0.00    +0.234 C 
ATOM      9  N   THR A  2        2.539  -0.331   1.390  0.00  0.00    -0.300 N 
ATOM     10  H   THR A  2        1.761  -0.460   2.020  0.00  0.00    +0.150 HD
ATOM     11  O   PRO A  1        3.208   0.440  -0.644  0.00  0.00    -0.274 OA
BRANCH   9  12
ATOM     12  CA  THR A  2        3.843  -0.766   1.891  0.00  0.00    +0.187 C 
BRANCH  12  13
ATOM     13  C   THR A  2        4.294  -2.074   1.214  0.00  0.00    +0.237 C 
ATOM     14  N   ARG A  3        5.584  -2.122   0.845  0.00  0.00    -0.301 N 
ATOM     15  H   ARG A  3        6.176  -1.323   1.021  0.00  0.00    +0.150 HD
ATOM     16  O   THR A  2        3.489  -2.994   1.058  0.00  0.00    -0.274 OA
BRANCH  14  17
ATOM     17  CA  ARG A  3        6.244  -3.265   0.201  0.00  0.00    +0.182 C 
BRANCH  17  18
ATOM     18  C   ARG A  3        7.768  -3.212   0.612  0.00  0.00    +0.325 C 
ATOM     19  OXT ARG A  3        7.981  -3.438   1.828  0.00  0.00    -0.249 OA
BRANCH  18  20
ATOM     20  O   ARG A  3        8.604  -2.949  -0.285  0.00  0.00    -0.479 OA
ATOM     21  H   ARG A  3        9.517  -2.909  -0.078  0.00  0.00    +0.295 HD
ENDBRANCH  18  20
ENDBRANCH  17  18
BRANCH  17  22
ATOM     22  CB  ARG A  3        5.973  -3.229  -1.338  0.00  0.00    +0.035 C 
BRANCH  22  23
ATOM     23  CG  ARG A  3        6.377  -4.514  -2.087  0.00  0.00    +0.017 C 
BRANCH  23  24
ATOM     24  CD  ARG A  3        6.047  -4.448  -3.586  0.00  0.00    +0.084 C 
BRANCH  24  25
ATOM     25  NE  ARG A  3        6.612  -5.591  -4.323  0.00  0.00    -0.283 NA
ATOM     26  HE  ARG A  3        7.128  -6.255  -3.764  0.00  0.00    +0.125 HD
BRANCH  25  27
ATOM     27  CZ  ARG A  3        6.516  -5.831  -5.647  0.00  0.00    +0.167 C 
BRANCH  27  28
ATOM     28  NH2 ARG A  3        7.100  -6.928  -6.148  0.00  0.00    -0.297 NA
ATOM     29 HH21 ARG A  3        7.605  -7.556  -5.539  0.00  0.00    +0.121 HD
ATOM     30 HH22 ARG A  3        7.042  -7.130  -7.136  0.00  0.00    +0.121 HD
ENDBRANCH  27  28
BRANCH  27  31
ATOM     31  NH1 ARG A  3        5.857  -5.009  -6.481  0.00  0.00    -0.297 NA
ATOM     32 HH11 ARG A  3        5.412  -4.177  -6.120  0.00  0.00    +0.121 HD
ATOM     33 HH12 ARG A  3        5.806  -5.217  -7.468  0.00  0.00    +0.121 HD
ENDBRANCH  27  31
ENDBRANCH  25  27
ENDBRANCH  24  25
ENDBRANCH  23  24
ENDBRANCH  22  23
ENDBRANCH  17  22
ENDBRANCH  14  17
ENDBRANCH  12  13
BRANCH  12  34
ATOM     34  CB  THR A  2        3.785  -0.991   3.427  0.00  0.00    +0.141 C 
ATOM     35  CG2 THR A  2        5.079  -1.523   4.075  0.00  0.00    +0.040 C 
BRANCH  34  36
ATOM     36  OG1 THR A  2        3.471   0.240   4.051  0.00  0.00    -0.390 OA
ATOM     37  HG1 THR A  2        2.613   0.533   3.736  0.00  0.00    +0.210 HD
ENDBRANCH  34  36
ENDBRANCH  12  34
ENDBRANCH   9  12
ENDBRANCH   3   8
BRANCH   1  38
ATOM     38  CA  PRO A  1        0.521   4.162   1.628  0.00  0.00    +0.162 C 
BRANCH  38  39
ATOM     39  N   PRO A  1       -0.674   4.452   2.422  0.00  0.00    -0.302 N 
ATOM     40  H   PRO A  1       -0.508   4.728   3.379  0.00  0.00    +0.150 HD
ATOM     41  C   PRO A  1       -1.937   4.350   1.978  0.00  0.00    +0.236 C 
ATOM     42  O   PRO A  1       -2.251   4.019   0.833  0.00  0.00    -0.274 OA
BRANCH  41  43
ATOM     43  CA  PRO A  1       -3.038   4.660   3.010  0.00  0.00    +0.187 C 
BRANCH  43  44
ATOM     44  N   PRO A  1       -4.065   5.530   2.435  0.00  0.00    -0.300 N 
ATOM     45  H   PRO A  1       -4.939   5.083   2.199  0.00  0.00    +0.150 HD
ATOM     46  C   PRO A  1       -3.904   6.838   2.180  0.00  0.00    +0.234 C 
ATOM     47  O   PRO A  1       -2.884   7.480   2.437  0.00  0.00    -0.274 OA
BRANCH  46  48
ATOM     48  CA  PRO A  1       -5.115   7.551   1.549  0.00  0.00    +0.162 C 
ATOM     49  N   PRO A  1       -5.650   8.660   2.368  0.00  0.00    -0.291 N 
ATOM     50  C   PRO A  1       -6.084   8.511   3.645  0.00  0.00    +0.202 C 
ATOM     51  O   PRO A  1       -6.160   7.414   4.207  0.00  0.00    -0.277 OA
ATOM     52  CD  PRO A  1       -5.690   9.903   1.593  0.00  0.00    +0.108 C 
ATOM     53  CG  PRO A  1       -5.635   9.452   0.141  0.00  0.00    +0.021 C 
ATOM     54  CB  PRO A  1       -4.753   8.218   0.207  0.00  0.00    +0.033 C 
BRANCH  50  55
ATOM     55  CA  PRO A  1       -6.490   9.808   4.399  0.00  0.00    +0.016 C 
ATOM     56  N   PRO A  1       -7.096   9.417   5.727  0.00  0.00    +0.387 N 
ATOM     57  H1  PRO A  1       -6.832   8.464   5.941  0.00  0.00    -0.085 HD
ATOM     58  H2  PRO A  1       -8.106   9.439   5.726  0.00  0.00    -0.085 HD
ATOM     59  CD  PRO A  1       -6.531  10.291   6.777  0.00  0.00    -0.082 C 
ATOM     60  CG  PRO A  1       -5.120  10.564   6.269  0.00  0.00    -0.020 C 
ATOM     61  CB  PRO A  1       -5.314  10.735   4.771  0.00  0.00    -0.009 C 
ENDBRANCH  50  55
ENDBRANCH  46  48
ENDBRANCH  43  44
BRANCH  43  62
ATOM     62  CB  PRO A  1       -3.662   3.318   3.485  0.00  0.00    +0.141 C 
ATOM     63  CG2 PRO A  1       -2.670   2.257   4.000  0.00  0.00    +0.040 C 
BRANCH  62  64
ATOM     64  OG1 PRO A  1       -4.575   3.592   4.531  0.00  0.00    -0.390 OA
ATOM     65  HG1 PRO A  1       -5.274   4.154   4.189  0.00  0.00    +0.210 HD
ENDBRANCH  62  64
ENDBRANCH  43  62
ENDBRANCH  41  43
ENDBRANCH  38  39
BRANCH  38  67
ATOM     66  CG1 PRO A  1        1.749   6.231   2.489  0.00  0.00    +0.009 C 
ATOM     67  CB  PRO A  1        1.789   4.697   2.361  0.00  0.00    +0.012 C 
ATOM     68  CG2 PRO A  1        3.127   4.275   1.711  0.00  0.00    +0.009 C 
ENDBRANCH  38  67
ENDBRANCH   1  38
TORSDOF 24
