REMARK  Name = DB17180
REMARK                            x       y       z     vdW  Elec       q    Type
REMARK                         _______ _______ _______ _____ _____    ______ ____
ROOT
ATOM      1  C   LIG    1        2.157   1.238   0.288  0.00  0.00    +0.050 A 
ATOM      2  C   LIG    1        3.245   1.620   1.075  0.00  0.00    +0.024 A 
ATOM      3  C   LIG    1        3.674   2.948   1.027  0.00  0.00    +0.012 A 
ATOM      4  C   LIG    1        3.028   3.876   0.194  0.00  0.00    +0.000 A 
ATOM      5  C   LIG    1        1.958   3.394  -0.575  0.00  0.00    +0.119 A 
ATOM      6  N   LIG    1        1.524   2.109  -0.544  0.00  0.00    -0.259 NA
ENDROOT
BRANCH   4   7
ATOM      7  C   LIG    1        3.456   5.306   0.131  0.00  0.00    -0.016 A 
ATOM      8  C   LIG    1        3.335   6.041  -1.053  0.00  0.00    +0.010 A 
ATOM      9  C   LIG    1        3.724   7.377  -1.109  0.00  0.00    +0.024 A 
ATOM     10  C   LIG    1        4.241   8.026   0.020  0.00  0.00    +0.030 A 
ATOM     11  C   LIG    1        4.377   7.282   1.202  0.00  0.00    +0.024 A 
ATOM     12  C   LIG    1        3.987   5.947   1.256  0.00  0.00    +0.010 A 
BRANCH  10  13
ATOM     13  N   LIG    1        4.630   9.366  -0.058  0.00  0.00    -0.326 N 
ATOM     14  C   LIG    1        3.716  10.346  -0.680  0.00  0.00    +0.133 C 
ATOM     15  C   LIG    1        4.402  11.681  -1.041  0.00  0.00    +0.178 C 
ATOM     16  O   LIG    1        5.030  12.231   0.107  0.00  0.00    -0.377 OA
ATOM     17  C   LIG    1        6.018  11.359   0.633  0.00  0.00    +0.178 C 
ATOM     18  C   LIG    1        5.374  10.016   1.038  0.00  0.00    +0.133 C 
ENDBRANCH  10  13
ENDBRANCH   4   7
BRANCH   1  19
ATOM     19  C   LIG    1        1.662  -0.210   0.293  0.00  0.00    +0.151 C 
BRANCH  19  22
ATOM     20  N   LIG    1       -0.517  -1.180  -0.290  0.00  0.00    -0.311 N 
ATOM     21  H   LIG    1        0.002  -1.660  -1.010  0.00  0.00    +0.149 HD
ATOM     22  C   LIG    1        0.149  -0.352   0.536  0.00  0.00    +0.219 C 
ATOM     23  O   LIG    1       -0.389   0.265   1.457  0.00  0.00    -0.275 OA
BRANCH  20  24
ATOM     24  C   LIG    1       -1.949  -1.478  -0.218  0.00  0.00    +0.139 C 
BRANCH  24  28
ATOM     25  F   LIG    1       -2.264  -5.678   2.314  0.00  0.00    -0.205 F 
ATOM     26  C   LIG    1       -2.521  -4.352   2.233  0.00  0.00    +0.124 A 
ATOM     27  C   LIG    1       -2.114  -3.631   1.109  0.00  0.00    +0.043 A 
ATOM     28  C   LIG    1       -2.367  -2.258   1.024  0.00  0.00    -0.028 A 
ATOM     29  C   LIG    1       -3.055  -1.619   2.061  0.00  0.00    +0.005 A 
ATOM     30  C   LIG    1       -3.462  -2.341   3.184  0.00  0.00    +0.003 A 
ATOM     31  C   LIG    1       -3.193  -3.707   3.271  0.00  0.00    +0.038 A 
ENDBRANCH  24  28
ENDBRANCH  20  24
ENDBRANCH  19  22
ENDBRANCH   1  19
TORSDOF 6
