REMARK  Name = DB17170
REMARK                            x       y       z     vdW  Elec       q    Type
REMARK                         _______ _______ _______ _____ _____    ______ ____
ROOT
ATOM      1  C   LIG    1       -2.199   3.569   0.001  0.00  0.00    +0.164 A 
ATOM      2  C   LIG    1       -0.804   3.477   0.086  0.00  0.00    +0.163 A 
ATOM      3  C   LIG    1       -0.199   2.230   0.308  0.00  0.00    +0.062 A 
ATOM      4  C   LIG    1       -0.978   1.054   0.462  0.00  0.00    +0.044 A 
ATOM      5  C   LIG    1       -0.451  -0.253   0.709  0.00  0.00    +0.134 A 
ATOM      6  N   LIG    1       -1.260  -1.334   0.840  0.00  0.00    -0.220 NA
ATOM      7  C   LIG    1       -2.591  -1.119   0.733  0.00  0.00    +0.223 A 
ATOM      8  N   LIG    1       -3.205   0.066   0.508  0.00  0.00    -0.235 NA
ATOM      9  C   LIG    1       -2.398   1.156   0.373  0.00  0.00    +0.080 A 
ATOM     10  C   LIG    1       -2.989   2.417   0.140  0.00  0.00    +0.078 A 
ENDROOT
BRANCH   1  12
ATOM     11  C   LIG    1       -4.138   4.997  -0.311  0.00  0.00    +0.277 C 
ATOM     12  O   LIG    1       -2.727   4.830  -0.221  0.00  0.00    -0.491 OA
ENDBRANCH   1  12
BRANCH   5  13
ATOM     13  N   LIG    1        0.943  -0.429   0.811  0.00  0.00    -0.297 N 
ATOM     14  H   LIG    1        1.448   0.430   0.648  0.00  0.00    +0.154 HD
BRANCH  13  15
ATOM     15  C   LIG    1        1.808  -1.506   1.096  0.00  0.00    +0.069 A 
ATOM     16  C   LIG    1        3.189  -1.266   1.004  0.00  0.00    +0.160 A 
ATOM     17  F   LIG    1        3.633  -0.030   0.654  0.00  0.00    -0.202 F 
ATOM     18  C   LIG    1        4.109  -2.291   1.271  0.00  0.00    +0.062 A 
ATOM     19  C   LIG    1        3.648  -3.559   1.631  0.00  0.00    +0.020 A 
ATOM     20  C   LIG    1        2.281  -3.804   1.726  0.00  0.00    +0.003 A 
ATOM     21  C   LIG    1        1.367  -2.787   1.460  0.00  0.00    +0.026 A 
BRANCH  18  22
ATOM     22  C   LIG    1        5.545  -2.055   1.178  0.00  0.00    -0.067 C 
ATOM     23  C   LIG    1        6.747  -1.849   1.091  0.00  0.00    +0.009 C 
ENDBRANCH  18  22
ENDBRANCH  13  15
ENDBRANCH   5  13
BRANCH   2  24
ATOM     24  O   LIG    1       -0.096   4.659  -0.062  0.00  0.00    -0.479 OA
BRANCH  24  25
ATOM     25  C   LIG    1        1.330   4.698   0.047  0.00  0.00    +0.245 C 
ATOM     26  C   LIG    1        1.869   6.004  -0.573  0.00  0.00    +0.297 C 
ATOM     27  F   LIG    1        1.313   7.063   0.024  0.00  0.00    -0.200 F 
ATOM     28  F   LIG    1        1.554   6.056  -1.869  0.00  0.00    -0.200 F 
ATOM     29  C   LIG    1        3.407   6.083  -0.426  0.00  0.00    +0.163 C 
ATOM     30  N   LIG    1        3.845   5.944   0.971  0.00  0.00    -0.300 NA
ATOM     31  C   LIG    1        5.298   6.029   1.070  0.00  0.00    +0.105 C 
ATOM     32  C   LIG    1        3.350   4.713   1.603  0.00  0.00    +0.088 C 
ATOM     33  C   LIG    1        1.812   4.602   1.513  0.00  0.00    +0.066 C 
ENDBRANCH  24  25
ENDBRANCH   2  24
TORSDOF 6
