REMARK  Name = DB17066
REMARK                            x       y       z     vdW  Elec       q    Type
REMARK                         _______ _______ _______ _____ _____    ______ ____
ROOT
ATOM      1  C   LIG    1       -0.071  -0.057  -0.015  0.00  0.00    +0.012 C 
ATOM      2  C   LIG    1        1.489  -0.011   0.009  0.00  0.00    -0.024 C 
ATOM      3  C   LIG    1        2.131   0.854   1.138  0.00  0.00    -0.001 C 
ATOM      4  C   LIG    1        1.593   2.290   0.829  0.00  0.00    +0.121 C 
ATOM      5  C   LIG    1        1.609   2.313  -0.721  0.00  0.00    +0.036 C 
ATOM      6  C   LIG    1        1.839   0.384   2.578  0.00  0.00    +0.014 C 
ATOM      7  C   LIG    1        3.649   0.809   0.776  0.00  0.00    +0.010 C 
ATOM      8  C   LIG    1        3.634   0.843  -0.767  0.00  0.00    +0.005 C 
ATOM      9  C   LIG    1        2.118   0.892  -1.080  0.00  0.00    -0.002 C 
ATOM     10  C   LIG    1        1.947  -1.503  -0.046  0.00  0.00    +0.012 C 
ENDROOT
BRANCH   4  11
ATOM     11  O   LIG    1        2.322   3.354   1.414  0.00  0.00    -0.391 OA
ATOM     12  H   LIG    1        1.767   4.138   1.419  0.00  0.00    +0.210 HD
ENDBRANCH   4  11
TORSDOF 1
