REMARK  Name = DB17029
REMARK                            x       y       z     vdW  Elec       q    Type
REMARK                         _______ _______ _______ _____ _____    ______ ____
ROOT
ATOM      1  C   LIG    1        2.280   2.415  -0.912  0.00  0.00    +0.149 C 
ATOM      2  N   LIG    1        1.073   3.067  -0.426  0.00  0.00    -0.341 N 
ATOM      3  C   LIG    1       -0.174   2.503  -0.147  0.00  0.00    +0.075 A 
ATOM      4  C   LIG    1       -0.613   1.159  -0.064  0.00  0.00    +0.075 A 
ATOM      5  N   LIG    1        0.056  -0.064   0.109  0.00  0.00    -0.337 N 
ATOM      6  C   LIG    1       -0.880  -1.094   0.014  0.00  0.00    +0.050 A 
ATOM      7  C   LIG    1       -0.727  -2.492   0.047  0.00  0.00    +0.026 A 
ATOM      8  C   LIG    1       -1.879  -3.273  -0.040  0.00  0.00    +0.002 A 
ATOM      9  C   LIG    1       -3.143  -2.705  -0.146  0.00  0.00    +0.001 A 
ATOM     10  C   LIG    1       -3.306  -1.324  -0.167  0.00  0.00    +0.010 A 
ATOM     11  C   LIG    1       -2.167  -0.504  -0.091  0.00  0.00    +0.008 A 
ATOM     12  C   LIG    1       -2.002   0.888  -0.061  0.00  0.00    +0.015 A 
ATOM     13  C   LIG    1       -2.920   1.947  -0.037  0.00  0.00    -0.008 A 
ATOM     14  C   LIG    1       -4.418   1.903  -0.014  0.00  0.00    +0.141 C 
ATOM     15  N   LIG    1       -4.750   3.311   0.072  0.00  0.00    -0.307 N 
ATOM     16  H   LIG    1       -5.707   3.629   0.106  0.00  0.00    +0.149 HD
ATOM     17  C   LIG    1       -3.702   4.151   0.087  0.00  0.00    +0.245 C 
ATOM     18  O   LIG    1       -3.780   5.374   0.134  0.00  0.00    -0.270 OA
ATOM     19  C   LIG    1       -2.490   3.263   0.021  0.00  0.00    +0.052 A 
ATOM     20  C   LIG    1       -1.110   3.569  -0.019  0.00  0.00    +0.022 A 
ATOM     21  C   LIG    1       -0.358   4.766   0.053  0.00  0.00    +0.008 A 
ATOM     22  C   LIG    1       -0.691   6.112   0.295  0.00  0.00    +0.010 A 
ATOM     23  C   LIG    1        0.310   7.079   0.270  0.00  0.00    +0.001 A 
ATOM     24  C   LIG    1        1.629   6.736   0.005  0.00  0.00    +0.002 A 
ATOM     25  C   LIG    1        2.005   5.418  -0.241  0.00  0.00    +0.026 A 
ATOM     26  C   LIG    1        1.001   4.436  -0.205  0.00  0.00    +0.050 A 
ENDROOT
BRANCH   5  27
ATOM     27  C   LIG    1        1.460  -0.303   0.466  0.00  0.00    +0.137 C 
BRANCH  27  28
ATOM     28  C   LIG    1        1.823   0.390   1.794  0.00  0.00    +0.140 C 
BRANCH  28  29
ATOM     29  C   LIG    1        1.047  -0.103   2.944  0.00  0.00    +0.064 C 
ATOM     30  N   LIG    1        0.436  -0.492   3.846  0.00  0.00    -0.197 NA
ENDBRANCH  28  29
ENDBRANCH  27  28
ENDBRANCH   5  27
TORSDOF 3
