REMARK  Name = DB17016
REMARK                            x       y       z     vdW  Elec       q    Type
REMARK                         _______ _______ _______ _____ _____    ______ ____
ROOT
ATOM      1  C   LIG    1        0.442  -2.322   1.406  0.00  0.00    +0.013 C 
ATOM      2  C   LIG    1       -0.409  -1.012   1.311  0.00  0.00    -0.010 C 
ATOM      3  C   LIG    1        0.085  -0.106   0.144  0.00  0.00    +0.082 C 
ATOM      4  C   LIG    1       -0.510  -0.781  -1.116  0.00  0.00    +0.023 C 
ATOM      5  C   LIG    1       -1.763  -1.553  -0.653  0.00  0.00    +0.006 C 
ATOM      6  C   LIG    1       -1.867  -1.238   0.846  0.00  0.00    +0.000 C 
ATOM      7  C   LIG    1       -2.653  -2.185   1.794  0.00  0.00    -0.003 C 
ATOM      8  C   LIG    1       -2.686  -1.565   3.237  0.00  0.00    +0.004 C 
ATOM      9  C   LIG    1       -3.486  -2.470   4.244  0.00  0.00    +0.008 C 
ATOM     10  C   LIG    1       -4.937  -2.720   3.660  0.00  0.00    +0.086 C 
ATOM     11  N   LIG    1       -5.830  -3.406   4.650  0.00  0.00    -0.297 N 
ATOM     12  C   LIG    1       -5.805  -3.039   5.972  0.00  0.00    +0.239 C 
ATOM     13  O   LIG    1       -6.508  -3.543   6.849  0.00  0.00    -0.271 OA
ATOM     14  C   LIG    1       -4.816  -2.041   6.323  0.00  0.00    +0.064 C 
ATOM     15  C   LIG    1       -6.868  -4.341   4.195  0.00  0.00    +0.132 C 
ATOM     16  C   LIG    1       -4.914  -3.326   2.232  0.00  0.00    +0.023 C 
ATOM     17  C   LIG    1       -3.715  -1.790   5.593  0.00  0.00    -0.013 C 
ATOM     18  C   LIG    1       -2.747  -3.811   4.533  0.00  0.00    +0.017 C 
ATOM     19  C   LIG    1       -1.252  -1.165   3.724  0.00  0.00    +0.005 C 
ATOM     20  C   LIG    1       -4.085  -2.449   1.278  0.00  0.00    +0.006 C 
ATOM     21  C   LIG    1       -0.481  -0.307   2.690  0.00  0.00    +0.009 C 
ENDROOT
BRANCH   3  22
ATOM     22  N   LIG    1        1.541   0.021   0.041  0.00  0.00    -0.278 N 
ATOM     23  H   LIG    1        2.052  -0.680  -0.475  0.00  0.00    +0.152 HD
ATOM     24  C   LIG    1        2.248   1.050   0.643  0.00  0.00    +0.401 C 
ATOM     25  O   LIG    1        1.770   1.971   1.310  0.00  0.00    -0.226 OA
BRANCH  24  26
ATOM     26  O   LIG    1        3.560   0.883   0.387  0.00  0.00    -0.441 OA
BRANCH  26  27
ATOM     27  C   LIG    1        4.524   1.807   0.883  0.00  0.00    +0.346 C 
BRANCH  27  28
ATOM     28  C   LIG    1        5.943   1.349   0.514  0.00  0.00    +0.424 C 
ATOM     29  F   LIG    1        6.103   1.262  -0.806  0.00  0.00    -0.167 F 
ATOM     30  F   LIG    1        6.227   0.159   1.044  0.00  0.00    -0.167 F 
ATOM     31  F   LIG    1        6.846   2.216   0.971  0.00  0.00    -0.167 F 
ENDBRANCH  27  28
ENDBRANCH  26  27
ENDBRANCH  24  26
ENDBRANCH   3  22
TORSDOF 4
