REMARK  Name = DB17620
REMARK                            x       y       z     vdW  Elec       q    Type
REMARK                         _______ _______ _______ _____ _____    ______ ____
ROOT
ATOM      1  C   LIG    1        0.704  -0.931   1.676  0.00  0.00    +0.240 C 
ENDROOT
BRANCH   1   2
ATOM      2  C   LIG    1       -0.798  -1.283   1.584  0.00  0.00    +0.275 C 
BRANCH   2   3
ATOM      3  O   LIG    1       -1.575  -0.109   1.795  0.00  0.00    -0.496 OA
BRANCH   3   5
ATOM      4  C   LIG    1       -3.802   0.478   2.418  0.00  0.00    +0.011 C 
ATOM      5  C   LIG    1       -2.914  -0.301   1.779  0.00  0.00    +0.183 C 
BRANCH   4   6
ATOM      6  C   LIG    1       -3.453   1.675   3.286  0.00  0.00    +0.030 C 
BRANCH   6   7
ATOM      7  C   LIG    1       -3.868   3.033   2.690  0.00  0.00    +0.004 C 
BRANCH   7   8
ATOM      8  C   LIG    1       -3.122   3.370   1.387  0.00  0.00    +0.000 C 
BRANCH   8   9
ATOM      9  C   LIG    1       -3.435   4.770   0.832  0.00  0.00    +0.000 C 
BRANCH   9  10
ATOM     10  C   LIG    1       -2.644   5.067  -0.454  0.00  0.00    +0.000 C 
BRANCH  10  11
ATOM     11  C   LIG    1       -2.902   6.471  -1.033  0.00  0.00    +0.000 C 
BRANCH  11  12
ATOM     12  C   LIG    1       -1.980   6.830  -2.215  0.00  0.00    -0.000 C 
BRANCH  12  13
ATOM     13  C   LIG    1       -2.208   5.978  -3.483  0.00  0.00    -0.000 C 
BRANCH  13  14
ATOM     14  C   LIG    1       -1.282   6.336  -4.661  0.00  0.00    -0.000 C 
BRANCH  14  15
ATOM     15  C   LIG    1        0.200   5.981  -4.427  0.00  0.00    -0.000 C 
BRANCH  15  16
ATOM     16  C   LIG    1        1.088   6.260  -5.653  0.00  0.00    -0.000 C 
BRANCH  16  17
ATOM     17  C   LIG    1        2.564   5.894  -5.416  0.00  0.00    -0.000 C 
BRANCH  17  19
ATOM     18  C   LIG    1        4.926   5.799  -6.405  0.00  0.00    +0.004 C 
ATOM     19  C   LIG    1        3.455   6.167  -6.641  0.00  0.00    -0.003 C 
ENDBRANCH  17  19
ENDBRANCH  16  17
ENDBRANCH  15  16
ENDBRANCH  14  15
ENDBRANCH  13  14
ENDBRANCH  12  13
ENDBRANCH  11  12
ENDBRANCH  10  11
ENDBRANCH   9  10
ENDBRANCH   8   9
ENDBRANCH   7   8
ENDBRANCH   6   7
ENDBRANCH   4   6
ENDBRANCH   3   5
ENDBRANCH   2   3
ENDBRANCH   1   2
BRANCH   1  20
ATOM     20  O   LIG    1        1.505  -2.115   1.662  0.00  0.00    -0.456 OA
BRANCH  20  21
ATOM     21  C   LIG    1        1.661  -2.879   2.768  0.00  0.00    +0.308 C 
ATOM     22  O   LIG    1        1.202  -2.640   3.886  0.00  0.00    -0.251 OA
BRANCH  21  23
ATOM     23  C   LIG    1        2.485  -4.140   2.504  0.00  0.00    +0.124 C 
BRANCH  23  24
ATOM     24  C   LIG    1        1.738  -5.162   1.625  0.00  0.00    +0.038 C 
BRANCH  24  25
ATOM     25  C   LIG    1        2.379  -6.539   1.643  0.00  0.00    -0.030 C 
ATOM     26  C   LIG    1        1.933  -7.645   2.273  0.00  0.00    -0.027 C 
BRANCH  26  27
ATOM     27  C   LIG    1        0.689  -7.791   3.136  0.00  0.00    +0.053 C 
BRANCH  27  28
ATOM     28  C   LIG    1        1.006  -8.020   4.605  0.00  0.00    -0.027 C 
ATOM     29  C   LIG    1        1.019  -7.104   5.595  0.00  0.00    -0.027 C 
BRANCH  29  30
ATOM     30  C   LIG    1        0.750  -5.613   5.478  0.00  0.00    +0.053 C 
BRANCH  30  31
ATOM     31  C   LIG    1       -0.520  -5.166   6.181  0.00  0.00    -0.027 C 
ATOM     32  C   LIG    1       -1.704  -4.848   5.620  0.00  0.00    -0.027 C 
BRANCH  32  33
ATOM     33  C   LIG    1       -2.069  -4.873   4.145  0.00  0.00    +0.053 C 
BRANCH  33  34
ATOM     34  C   LIG    1       -2.934  -6.069   3.787  0.00  0.00    -0.027 C 
ATOM     35  C   LIG    1       -4.124  -6.074   3.155  0.00  0.00    -0.027 C 
BRANCH  35  36
ATOM     36  C   LIG    1       -4.892  -4.887   2.598  0.00  0.00    +0.053 C 
BRANCH  36  37
ATOM     37  C   LIG    1       -5.109  -4.987   1.099  0.00  0.00    -0.027 C 
ATOM     38  C   LIG    1       -4.260  -4.585   0.134  0.00  0.00    -0.027 C 
BRANCH  38  39
ATOM     39  C   LIG    1       -2.894  -3.953   0.333  0.00  0.00    +0.053 C 
BRANCH  39  40
ATOM     40  C   LIG    1       -1.749  -4.896   0.013  0.00  0.00    -0.027 C 
ATOM     41  C   LIG    1       -0.784  -4.736  -0.913  0.00  0.00    -0.031 C 
BRANCH  41  42
ATOM     42  C   LIG    1       -0.583  -3.561  -1.854  0.00  0.00    +0.023 C 
ATOM     43  C   LIG    1       -0.827  -3.915  -3.325  0.00  0.00    +0.008 C 
ENDBRANCH  41  42
ENDBRANCH  39  40
ENDBRANCH  38  39
ENDBRANCH  36  37
ENDBRANCH  35  36
ENDBRANCH  33  34
ENDBRANCH  32  33
ENDBRANCH  30  31
ENDBRANCH  29  30
ENDBRANCH  27  28
ENDBRANCH  26  27
ENDBRANCH  24  25
ENDBRANCH  23  24
ENDBRANCH  21  23
ENDBRANCH  20  21
ENDBRANCH   1  20
BRANCH   1  44
ATOM     44  C   LIG    1        1.184  -0.019   0.531  0.00  0.00    +0.219 C 
BRANCH  44  45
ATOM     45  O   LIG    1        1.055  -0.675  -0.723  0.00  0.00    -0.292 OA
BRANCH  45  46
ATOM     46  P   LIG    1        0.497   0.105  -2.044  0.00  0.00    +0.408 P 
ATOM     47  O   LIG    1        0.763   1.712  -2.113  0.00  0.00    -0.295 OA
ATOM     48  C   LIG    1       -0.438   2.424  -2.318  0.00  0.00    +0.187 C 
ATOM     49  C   LIG    1       -1.436   1.714  -1.402  0.00  0.00    +0.121 C 
ATOM     50  N   LIG    1       -1.137   0.310  -1.620  0.00  0.00    -0.220 NA
ATOM     51  H   LIG    1       -1.621  -0.395  -1.063  0.00  0.00    +0.134 HD
ATOM     52  O   LIG    1        0.852  -0.670  -3.263  0.00  0.00    -0.240 OA
ENDBRANCH  45  46
ENDBRANCH  44  45
ENDBRANCH   1  44
TORSDOF 35
