REMARK  Name = DB17234
REMARK                            x       y       z     vdW  Elec       q    Type
REMARK                         _______ _______ _______ _____ _____    ______ ____
ROOT
ATOM      1  C   LIG    1        0.110   0.098   0.028  0.00  0.00    +0.159 C 
ENDROOT
BRANCH   1   8
ATOM      2  C   LIG    1       -4.157  -4.210  -0.692  0.00  0.00    -0.096 C 
ATOM      3  N   LIG    1       -2.765  -3.932  -0.091  0.00  0.00    +0.380 N 
ATOM      4  H   LIG    1       -2.275  -4.807   0.034  0.00  0.00    -0.082 HD
ATOM      5  C   LIG    1       -2.901  -3.251   1.291  0.00  0.00    -0.060 C 
ATOM      6  C   LIG    1       -1.501  -2.936   1.873  0.00  0.00    +0.089 C 
ATOM      7  N   LIG    1       -0.775  -2.110   0.886  0.00  0.00    -0.304 N 
ATOM      8  C   LIG    1       -0.501  -0.800   1.142  0.00  0.00    +0.236 C 
ATOM      9  O   LIG    1       -0.706  -0.280   2.243  0.00  0.00    -0.274 OA
ATOM     10  C   LIG    1       -0.551  -2.782  -0.407  0.00  0.00    +0.089 C 
ATOM     11  C   LIG    1       -1.934  -3.043  -1.042  0.00  0.00    -0.060 C 
ENDBRANCH   1   8
BRANCH   1  12
ATOM     12  N   LIG    1       -0.421   1.469   0.076  0.00  0.00    -0.300 N 
ATOM     13  H   LIG    1        0.230   2.177   0.380  0.00  0.00    +0.150 HD
ATOM     14  C   LIG    1       -1.687   1.837  -0.213  0.00  0.00    +0.245 C 
ATOM     15  O   LIG    1       -2.548   1.027  -0.565  0.00  0.00    -0.270 OA
BRANCH  14  16
ATOM     16  C   LIG    1       -2.012   3.312  -0.086  0.00  0.00    +0.037 A 
ATOM     17  C   LIG    1       -3.335   3.747  -0.253  0.00  0.00    +0.015 A 
ATOM     18  C   LIG    1       -3.659   5.097  -0.150  0.00  0.00    +0.028 A 
ATOM     19  C   LIG    1       -2.662   6.043   0.121  0.00  0.00    +0.067 A 
ATOM     20  C   LIG    1       -1.341   5.617   0.291  0.00  0.00    +0.028 A 
ATOM     21  C   LIG    1       -1.019   4.267   0.188  0.00  0.00    +0.015 A 
BRANCH  19  22
ATOM     22  N   LIG    1       -2.979   7.420   0.221  0.00  0.00    -0.220 N 
ATOM     23  N   LIG    1       -4.216   7.846   0.532  0.00  0.00    -0.061 NA
ATOM     24  N   LIG    1       -4.190   9.230   0.550  0.00  0.00    -0.138 NA
ATOM     25  C   LIG    1       -2.964   9.613   0.254  0.00  0.00    +0.156 A 
ATOM     26  C   LIG    1       -2.156   8.509   0.037  0.00  0.00    +0.136 A 
ENDBRANCH  19  22
ENDBRANCH  14  16
ENDBRANCH   1  12
BRANCH   1  27
ATOM     27  C   LIG    1        1.657   0.082   0.112  0.00  0.00    +0.030 C 
BRANCH  27  28
ATOM     28  C   LIG    1        2.356   0.893  -0.998  0.00  0.00    -0.017 C 
BRANCH  28  29
ATOM     29  C   LIG    1        3.885   0.758  -0.946  0.00  0.00    -0.082 C 
BRANCH  29  30
ATOM     30  N   LIG    1        4.508   1.599  -2.070  0.00  0.00    +0.381 N 
ATOM     31  H   LIG    1        4.265   2.570  -1.933  0.00  0.00    -0.086 HD
ATOM     32  H   LIG    1        4.120   1.306  -2.956  0.00  0.00    -0.086 HD
BRANCH  30  33
ATOM     33  C   LIG    1        6.035   1.470  -2.133  0.00  0.00    -0.064 C 
ATOM     34  C   LIG    1        6.649   0.380  -2.991  0.00  0.00    +0.003 C 
ATOM     35  C   LIG    1        6.755   1.835  -3.408  0.00  0.00    -0.009 C 
BRANCH  34  36
ATOM     36  C   LIG    1        7.901  -0.399  -2.596  0.00  0.00    -0.046 A 
ATOM     37  C   LIG    1        8.046  -1.719  -3.034  0.00  0.00    +0.006 A 
ATOM     38  C   LIG    1        9.178  -2.451  -2.687  0.00  0.00    +0.038 A 
ATOM     39  C   LIG    1       10.168  -1.863  -1.902  0.00  0.00    +0.123 A 
ATOM     40  F   LIG    1       11.269  -2.573  -1.567  0.00  0.00    -0.205 F 
ATOM     41  C   LIG    1       10.032  -0.550  -1.459  0.00  0.00    +0.038 A 
ATOM     42  C   LIG    1        8.899   0.183  -1.805  0.00  0.00    +0.006 A 
ENDBRANCH  34  36
ENDBRANCH  30  33
ENDBRANCH  29  30
ENDBRANCH  28  29
ENDBRANCH  27  28
ENDBRANCH   1  27
TORSDOF 10
