REMARK  Name = DB17053
REMARK                            x       y       z     vdW  Elec       q    Type
REMARK                         _______ _______ _______ _____ _____    ______ ____
ROOT
ATOM      1  N   LIG    1        4.067   1.528   2.545  0.00  0.00    -0.275 N 
ATOM      2  C   LIG    1        4.199   2.900   2.490  0.00  0.00    +0.262 A 
ATOM      3  O   LIG    1        3.835   3.577   1.523  0.00  0.00    -0.267 OA
ATOM      4  C   LIG    1        4.828   3.522   3.722  0.00  0.00    +0.048 A 
ATOM      5  C   LIG    1        5.030   4.908   3.766  0.00  0.00    +0.014 A 
ATOM      6  C   LIG    1        5.605   5.513   4.882  0.00  0.00    +0.001 A 
ATOM      7  C   LIG    1        5.996   4.757   5.986  0.00  0.00    +0.008 A 
ATOM      8  C   LIG    1        5.812   3.354   5.987  0.00  0.00    -0.016 A 
ATOM      9  C   LIG    1        6.186   2.527   7.073  0.00  0.00    +0.008 A 
ATOM     10  C   LIG    1        5.976   1.150   7.008  0.00  0.00    +0.001 A 
ATOM     11  C   LIG    1        5.400   0.565   5.882  0.00  0.00    +0.014 A 
ATOM     12  C   LIG    1        5.015   1.344   4.783  0.00  0.00    +0.048 A 
ATOM     13  C   LIG    1        5.224   2.747   4.843  0.00  0.00    +0.007 A 
ATOM     14  C   LIG    1        4.394   0.671   3.574  0.00  0.00    +0.262 A 
ATOM     15  O   LIG    1        4.198  -0.548   3.527  0.00  0.00    -0.267 OA
ENDROOT
BRANCH   1  16
ATOM     16  C   LIG    1        3.493   0.886   1.330  0.00  0.00    +0.128 C 
BRANCH  16  17
ATOM     17  C   LIG    1        1.958   0.736   1.369  0.00  0.00    +0.022 C 
BRANCH  17  18
ATOM     18  C   LIG    1        1.405   0.065   0.099  0.00  0.00    +0.002 C 
BRANCH  18  19
ATOM     19  C   LIG    1       -0.111  -0.213   0.130  0.00  0.00    +0.009 C 
BRANCH  19  20
ATOM     20  C   LIG    1       -0.988   1.061   0.153  0.00  0.00    +0.098 C 
BRANCH  20  23
ATOM     21  N   LIG    1       -3.291   1.718   0.636  0.00  0.00    -0.197 N 
ATOM     22  H   LIG    1       -3.025   2.588   1.073  0.00  0.00    +0.182 HD
ATOM     23  C   LIG    1       -2.499   0.786   0.076  0.00  0.00    +0.235 C 
ATOM     24  O   LIG    1       -2.923  -0.227  -0.486  0.00  0.00    -0.274 OA
BRANCH  21  25
ATOM     25  O   LIG    1       -4.678   1.541   0.566  0.00  0.00    -0.295 OA
ATOM     26  H   LIG    1       -4.951   2.196  -0.079  0.00  0.00    +0.241 HD
ENDBRANCH  21  25
ENDBRANCH  20  23
ENDBRANCH  19  20
ENDBRANCH  18  19
ENDBRANCH  17  18
ENDBRANCH  16  17
ENDBRANCH   1  16
TORSDOF 7
