REMARK  Name = DB17863
REMARK                            x       y       z     vdW  Elec       q    Type
REMARK                         _______ _______ _______ _____ _____    ______ ____
ROOT
ATOM      1  C   LIG    1       -2.111   0.470  -0.013  0.00  0.00    +0.136 A 
ATOM      2  N   LIG    1       -0.768   0.295  -0.160  0.00  0.00    -0.212 NA
ATOM      3  C   LIG    1       -0.263  -0.942  -0.414  0.00  0.00    +0.156 A 
ATOM      4  C   LIG    1       -1.100  -2.054  -0.542  0.00  0.00    +0.049 A 
ATOM      5  C   LIG    1       -2.473  -1.883  -0.390  0.00  0.00    +0.020 A 
ATOM      6  C   LIG    1       -3.020  -0.620  -0.106  0.00  0.00    +0.078 A 
ENDROOT
BRANCH   1  10
ATOM      7  C   LIG    1       -1.587   5.245   1.199  0.00  0.00    +0.009 C 
ATOM      8  C   LIG    1       -2.568   4.076   1.012  0.00  0.00    +0.005 C 
ATOM      9  C   LIG    1       -1.906   2.703   1.116  0.00  0.00    +0.110 C 
ATOM     10  N   LIG    1       -2.501   1.816   0.114  0.00  0.00    -0.309 N 
ATOM     11  C   LIG    1       -2.785   2.715  -1.024  0.00  0.00    +0.031 C 
ATOM     12  C   LIG    1       -1.524   2.942  -1.903  0.00  0.00    +0.031 C 
ATOM     13  C   LIG    1       -3.919   2.183  -1.932  0.00  0.00    +0.031 C 
ATOM     14  C   LIG    1       -3.220   4.044  -0.369  0.00  0.00    +0.030 C 
ENDBRANCH   1  10
BRANCH   3  15
ATOM     15  N   LIG    1        1.148  -1.068  -0.555  0.00  0.00    -0.218 N 
ATOM     16  N   LIG    1        1.949   0.018  -0.624  0.00  0.00    -0.127 NA
ATOM     17  C   LIG    1        3.176  -0.435  -0.745  0.00  0.00    +0.234 A 
ATOM     18  C   LIG    1        3.212  -1.837  -0.752  0.00  0.00    +0.088 A 
ATOM     19  C   LIG    1        1.894  -2.225  -0.630  0.00  0.00    +0.120 A 
BRANCH  17  20
ATOM     20  O   LIG    1        4.203   0.471  -0.842  0.00  0.00    -0.475 OA
BRANCH  20  21
ATOM     21  C   LIG    1        5.515  -0.076  -0.946  0.00  0.00    +0.231 C 
BRANCH  21  22
ATOM     22  C   LIG    1        6.540   1.053  -1.154  0.00  0.00    +0.056 C 
BRANCH  22  23
ATOM     23  C   LIG    1        6.619   1.632  -2.593  0.00  0.00    +0.069 C 
ATOM     24  C   LIG    1        7.545   0.924  -3.566  0.00  0.00    +0.016 C 
ATOM     25  C   LIG    1        7.946   2.259  -2.987  0.00  0.00    +0.016 C 
BRANCH  23  26
ATOM     26  C   LIG    1        5.327   2.272  -3.171  0.00  0.00    +0.396 C 
ATOM     27  F   LIG    1        5.535   2.922  -4.318  0.00  0.00    -0.170 F 
ATOM     28  F   LIG    1        4.802   3.150  -2.316  0.00  0.00    -0.170 F 
ATOM     29  F   LIG    1        4.400   1.349  -3.426  0.00  0.00    -0.170 F 
ENDBRANCH  23  26
ENDBRANCH  22  23
ENDBRANCH  21  22
ENDBRANCH  20  21
ENDBRANCH  17  20
ENDBRANCH   3  15
BRANCH   6  30
ATOM     30  C   LIG    1       -4.525  -0.527   0.098  0.00  0.00    +0.266 C 
ATOM     31  O   LIG    1       -5.252  -1.288  -0.549  0.00  0.00    -0.268 OA
ATOM     32  N   LIG    1       -4.915   0.363   0.980  0.00  0.00    -0.181 N 
ATOM     33  H   LIG    1       -4.241   0.904   1.452  0.00  0.00    +0.177 HD
BRANCH  32  34
ATOM     34  S   LIG    1       -6.437   0.578   1.295  0.00  0.00    +0.075 S 
ATOM     35  O   LIG    1       -7.264   0.882   0.120  0.00  0.00    -0.150 OA
ATOM     36  O   LIG    1       -6.973  -0.370   2.280  0.00  0.00    -0.150 OA
BRANCH  34  37
ATOM     37  C   LIG    1       -6.298   2.134   2.181  0.00  0.00    +0.109 A 
ATOM     38  C   LIG    1       -6.463   3.344   1.501  0.00  0.00    +0.029 A 
ATOM     39  C   LIG    1       -6.315   4.549   2.183  0.00  0.00    +0.002 A 
ATOM     40  C   LIG    1       -5.993   4.540   3.539  0.00  0.00    +0.000 A 
ATOM     41  C   LIG    1       -5.815   3.338   4.219  0.00  0.00    +0.002 A 
ATOM     42  C   LIG    1       -5.964   2.132   3.539  0.00  0.00    +0.029 A 
ENDBRANCH  34  37
ENDBRANCH  32  34
ENDBRANCH   6  30
TORSDOF 10
