REMARK  Name = DB17199
REMARK                            x       y       z     vdW  Elec       q    Type
REMARK                         _______ _______ _______ _____ _____    ______ ____
ROOT
ATOM      1  C   LIG    1        1.910   0.624  -1.483  0.00  0.00    +0.140 A 
ATOM      2  N   LIG    1        1.869  -0.700  -1.819  0.00  0.00    -0.216 NA
ATOM      3  C   LIG    1        2.772  -1.162  -2.726  0.00  0.00    +0.132 A 
ATOM      4  C   LIG    1        2.690  -2.638  -3.068  0.00  0.00    +0.088 C 
ATOM      5  N   LIG    1        3.737  -0.451  -3.369  0.00  0.00    -0.197 NA
ATOM      6  C   LIG    1        3.737   0.839  -3.029  0.00  0.00    +0.232 A 
ATOM      7  O   LIG    1        4.615   1.729  -3.573  0.00  0.00    -0.442 OA
ATOM      8  C   LIG    1        4.316   2.942  -3.021  0.00  0.00    +0.105 A 
ATOM      9  C   LIG    1        5.166   4.099  -3.486  0.00  0.00    +0.086 C 
ATOM     10  C   LIG    1        3.255   2.842  -2.127  0.00  0.00    +0.058 A 
ATOM     11  C   LIG    1        2.868   1.463  -2.107  0.00  0.00    +0.080 A 
ENDROOT
BRANCH   1  12
ATOM     12  N   LIG    1        0.972   1.100  -0.532  0.00  0.00    -0.288 N 
ATOM     13  C   LIG    1        1.549   1.915   0.548  0.00  0.00    +0.137 C 
BRANCH  12  17
ATOM     14  C   LIG    1       -3.030  -0.261  -0.077  0.00  0.00    +0.120 A 
ATOM     15  C   LIG    1       -2.357   0.308   1.012  0.00  0.00    +0.047 A 
ATOM     16  C   LIG    1       -1.046   0.756   0.872  0.00  0.00    +0.027 A 
ATOM     17  C   LIG    1       -0.366   0.640  -0.353  0.00  0.00    +0.035 A 
ATOM     18  C   LIG    1       -1.059   0.078  -1.436  0.00  0.00    +0.027 A 
ATOM     19  C   LIG    1       -2.369  -0.368  -1.298  0.00  0.00    +0.047 A 
BRANCH  14  21
ATOM     20  C   LIG    1       -5.055  -0.652   1.188  0.00  0.00    +0.277 C 
ATOM     21  O   LIG    1       -4.329  -0.731  -0.034  0.00  0.00    -0.495 OA
ENDBRANCH  14  21
ENDBRANCH  12  17
ENDBRANCH   1  12
TORSDOF 3
