REMARK  Name = DB17582
REMARK                            x       y       z     vdW  Elec       q    Type
REMARK                         _______ _______ _______ _____ _____    ______ ____
ROOT
ATOM      1  C   UNK A  0        1.313  -0.032  -0.136  0.00  0.00    -0.013 A 
ATOM      2  C   UNK A  0        2.124   0.760   0.706  0.00  0.00    -0.043 A 
ATOM      3  C   UNK A  0        1.541   1.641   1.805  0.00  0.00    +0.044 C 
ATOM      4  C   UNK A  0        3.516   0.704   0.584  0.00  0.00    +0.006 A 
ATOM      5  C   UNK A  0        4.115  -0.122  -0.362  0.00  0.00    +0.023 A 
ATOM      6  C   UNK A  0        3.334  -0.906  -1.209  0.00  0.00    +0.035 A 
ATOM      7  C   UNK A  0        1.937  -0.866  -1.076  0.00  0.00    +0.032 A 
ENDROOT
BRANCH   6   8
ATOM      8  N   UNK A  0        4.022  -1.719  -2.128  0.00  0.00    -0.269 N 
ATOM      9  H   UNK A  0        4.991  -1.886  -1.898  0.00  0.00    +0.156 HD
ATOM     10  C   UNK A  0        3.573  -2.271  -3.281  0.00  0.00    +0.306 C 
ATOM     11  N   UNK A  0        4.473  -3.067  -3.918  0.00  0.00    -0.285 N 
ATOM     12  C   UNK A  0        4.080  -3.910  -5.053  0.00  0.00    +0.113 C 
ATOM     13  C   UNK A  0        5.393  -4.551  -5.516  0.00  0.00    +0.016 C 
ATOM     14  C   UNK A  0        6.198  -4.638  -4.227  0.00  0.00    +0.024 C 
ATOM     15  C   UNK A  0        5.837  -3.369  -3.452  0.00  0.00    +0.109 C 
ATOM     16  O   UNK A  0        2.445  -2.072  -3.739  0.00  0.00    -0.252 OA
BRANCH  13  17
ATOM     17  C   UNK A  0        5.212  -5.906  -6.239  0.00  0.00    +0.118 C 
BRANCH  17  18
ATOM     18  C   UNK A  0        4.517  -5.826  -7.614  0.00  0.00    +0.390 C 
ATOM     19  F   UNK A  0        5.166  -5.009  -8.443  0.00  0.00    -0.171 F 
ATOM     20  F   UNK A  0        3.262  -5.387  -7.515  0.00  0.00    -0.171 F 
ATOM     21  F   UNK A  0        4.474  -7.028  -8.188  0.00  0.00    -0.171 F 
ENDBRANCH  17  18
ENDBRANCH  13  17
ENDBRANCH   6   8
BRANCH   1  26
ATOM     22  C   UNK A  0       -2.291  -1.198   0.053  0.00  0.00    +0.122 A 
ATOM     23  N   UNK A  0       -2.977  -0.032   0.013  0.00  0.00    -0.218 NA
ATOM     24  C   UNK A  0       -2.310   1.153  -0.083  0.00  0.00    +0.124 A 
ATOM     25  C   UNK A  0       -0.905   1.172  -0.121  0.00  0.00    +0.052 A 
ATOM     26  C   UNK A  0       -0.178  -0.025  -0.070  0.00  0.00    -0.011 A 
ATOM     27  C   UNK A  0       -0.892  -1.225   0.012  0.00  0.00    +0.052 A 
BRANCH  24  28
ATOM     28  N   UNK A  0       -3.083   2.322  -0.101  0.00  0.00    -0.311 N 
ATOM     29  C   UNK A  0       -4.526   2.276  -0.428  0.00  0.00    +0.134 C 
ATOM     30  C   UNK A  0       -5.312   3.554  -0.074  0.00  0.00    +0.178 C 
ATOM     31  O   UNK A  0       -4.678   4.686  -0.645  0.00  0.00    -0.377 OA
ATOM     32  C   UNK A  0       -3.370   4.853  -0.128  0.00  0.00    +0.178 C 
ATOM     33  C   UNK A  0       -2.496   3.628  -0.470  0.00  0.00    +0.134 C 
ENDBRANCH  24  28
BRANCH  22  34
ATOM     34  N   ALA A  1       -3.086  -2.353   0.146  0.00  0.00    -0.324 N 
ATOM     35  H   ALA A  1       -4.089  -2.239   0.189  0.00  0.00    +0.148 HD
BRANCH  34  37
ATOM     36  CB  ALA A  1       -2.064  -4.204  -1.182  0.00  0.00    +0.030 C 
ATOM     37  CA  ALA A  1       -2.551  -3.712   0.198  0.00  0.00    +0.094 C 
BRANCH  37  38
ATOM     38  C   ALA A  1       -3.579  -4.677   0.827  0.00  0.00    +0.177 C 
BRANCH  38  39
ATOM     39  O   ALA A  1       -2.957  -5.880   1.230  0.00  0.00    -0.393 OA
ATOM     40  H   ALA A  1       -3.617  -6.443   1.642  0.00  0.00    +0.209 HD
ENDBRANCH  38  39
ENDBRANCH  37  38
ENDBRANCH  34  37
ENDBRANCH  22  34
ENDBRANCH   1  26
TORSDOF 9
