REMARK  Name = DB17138
REMARK                            x       y       z     vdW  Elec       q    Type
REMARK                         _______ _______ _______ _____ _____    ______ ____
ROOT
ATOM      1  C   LIG    1        1.442  -0.208  -0.282  0.00  0.00    +0.071 C 
ATOM      2  C   LIG    1        2.264   0.848  -0.442  0.00  0.00    +0.013 C 
ENDROOT
BRANCH   2   3
ATOM      3  C   LIG    1        3.736   0.817  -0.582  0.00  0.00    -0.021 A 
ATOM      4  C   LIG    1        4.473  -0.377  -0.578  0.00  0.00    +0.012 A 
ATOM      5  C   LIG    1        5.860  -0.358  -0.714  0.00  0.00    +0.050 A 
ATOM      6  C   LIG    1        6.536   0.854  -0.856  0.00  0.00    +0.158 A 
ATOM      7  C   LIG    1        5.814   2.054  -0.862  0.00  0.00    +0.159 A 
ATOM      8  C   LIG    1        4.424   2.028  -0.726  0.00  0.00    +0.057 A 
BRANCH   6   9
ATOM      9  O   LIG    1        7.902   0.847  -0.988  0.00  0.00    -0.503 OA
ATOM     10  H   LIG    1        8.277  -0.036  -0.969  0.00  0.00    +0.292 HD
ENDBRANCH   6   9
BRANCH   7  11
ATOM     11  O   LIG    1        6.450   3.262  -1.001  0.00  0.00    -0.503 OA
ATOM     12  H   LIG    1        5.847   4.009  -0.990  0.00  0.00    +0.292 HD
ENDBRANCH   7  11
ENDBRANCH   2   3
BRANCH   1  15
ATOM     13  C   LIG    1       -1.989   0.330  -0.018  0.00  0.00    +0.172 A 
ATOM     14  N   LIG    1       -0.798   0.878  -0.160  0.00  0.00    -0.192 NA
ATOM     15  C   LIG    1       -0.001  -0.159  -0.153  0.00  0.00    +0.251 A 
ATOM     16  O   LIG    1       -0.676  -1.328  -0.006  0.00  0.00    -0.333 OA
ATOM     17  N   LIG    1       -2.022  -0.979   0.083  0.00  0.00    -0.061 NA
BRANCH  13  18
ATOM     18  C   LIG    1       -3.256   1.165   0.020  0.00  0.00    +0.079 C 
BRANCH  18  20
ATOM     19  C   LIG    1       -4.794   2.765  -1.264  0.00  0.00    +0.004 C 
ATOM     20  C   LIG    1       -3.515   1.917  -1.300  0.00  0.00    +0.004 C 
ENDBRANCH  18  20
ENDBRANCH  13  18
ENDBRANCH   1  15
TORSDOF 6
