REMARK  Name = DB17192
REMARK                            x       y       z     vdW  Elec       q    Type
REMARK                         _______ _______ _______ _____ _____    ______ ____
ROOT
ATOM      1  C   LIG    1        1.443  -0.019  -0.034  0.00  0.00    +0.187 C 
ENDROOT
BRANCH   1   2
ATOM      2  O   LIG    1        2.073  -1.287  -0.033  0.00  0.00    -0.385 OA
ATOM      3  H   LIG    1        1.771  -1.778   0.735  0.00  0.00    +0.210 HD
ENDBRANCH   1   2
BRANCH   1   4
ATOM      4  C   LIG    1       -0.103  -0.173   0.107  0.00  0.00    +0.184 C 
BRANCH   4   5
ATOM      5  O   LIG    1       -0.743   1.086   0.013  0.00  0.00    -0.386 OA
ATOM      6  H   LIG    1       -0.421   1.648   0.722  0.00  0.00    +0.210 HD
ENDBRANCH   4   5
BRANCH   4   7
ATOM      7  C   LIG    1       -0.571  -0.803   1.437  0.00  0.00    +0.266 C 
BRANCH   7   8
ATOM      8  O   LIG    1       -0.182  -2.169   1.528  0.00  0.00    -0.462 OA
BRANCH   8  10
ATOM      9  C   LIG    1        0.045  -4.323   2.528  0.00  0.00    +0.136 C 
ATOM     10  C   LIG    1       -0.450  -2.887   2.637  0.00  0.00    +0.304 C 
ATOM     11  O   LIG    1       -1.023  -2.481   3.649  0.00  0.00    -0.251 OA
ENDBRANCH   8  10
ENDBRANCH   7   8
ENDBRANCH   4   7
ENDBRANCH   1   4
BRANCH   1  12
ATOM     12  C   LIG    1        1.956   0.768  -1.281  0.00  0.00    +0.214 C 
BRANCH  12  13
ATOM     13  O   LIG    1        1.687   2.172  -1.178  0.00  0.00    -0.458 OA
BRANCH  13  14
ATOM     14  C   LIG    1        2.413   2.987  -0.379  0.00  0.00    +0.304 C 
ATOM     15  O   LIG    1        3.364   2.657   0.331  0.00  0.00    -0.251 OA
ATOM     16  C   LIG    1        1.929   4.430  -0.437  0.00  0.00    +0.136 C 
ENDBRANCH  13  14
ENDBRANCH  12  13
BRANCH  12  17
ATOM     17  C   LIG    1        1.366   0.246  -2.612  0.00  0.00    +0.118 C 
BRANCH  17  18
ATOM     18  C   LIG    1        2.091   0.791  -3.842  0.00  0.00    +0.227 C 
ATOM     19  O   LIG    1        2.729   0.045  -4.582  0.00  0.00    -0.301 OA
ENDBRANCH  17  18
ENDBRANCH  12  17
ENDBRANCH   1  12
TORSDOF 11
