REMARK  Name = DB17027
REMARK                            x       y       z     vdW  Elec       q    Type
REMARK                         _______ _______ _______ _____ _____    ______ ____
ROOT
ATOM      1  N   LIG    1       -2.240   1.825   1.082  0.00  0.00    +0.384 N 
ATOM      2  H   LIG    1       -2.420   2.736   1.479  0.00  0.00    -0.081 HD
ATOM      3  C   LIG    1       -1.927   0.845   2.241  0.00  0.00    -0.063 C 
ATOM      4  C   LIG    1       -0.646   1.318   2.977  0.00  0.00    +0.066 C 
ATOM      5  N   LIG    1        0.511   1.436   2.079  0.00  0.00    -0.304 NA
ATOM      6  C   LIG    1        0.203   2.401   1.014  0.00  0.00    +0.066 C 
ATOM      7  C   LIG    1       -1.005   1.950   0.159  0.00  0.00    -0.063 C 
ENDROOT
BRANCH   1   8
ATOM      8  C   LIG    1       -3.475   1.374   0.269  0.00  0.00    -0.051 C 
BRANCH   8  10
ATOM      9  C   LIG    1       -5.453   0.279   1.412  0.00  0.00    +0.002 C 
ATOM     10  C   LIG    1       -4.762   1.384   1.072  0.00  0.00    -0.045 C 
BRANCH   9  14
ATOM     11  C   LIG    1       -9.082   0.037   3.648  0.00  0.00    +0.000 A 
ATOM     12  C   LIG    1       -8.676   1.272   3.148  0.00  0.00    +0.001 A 
ATOM     13  C   LIG    1       -7.496   1.367   2.415  0.00  0.00    +0.008 A 
ATOM     14  C   LIG    1       -6.717   0.226   2.177  0.00  0.00    -0.025 A 
ATOM     15  C   LIG    1       -7.136  -1.007   2.687  0.00  0.00    +0.008 A 
ATOM     16  C   LIG    1       -8.316  -1.103   3.421  0.00  0.00    +0.001 A 
ENDBRANCH   9  14
ENDBRANCH   8  10
ENDBRANCH   1   8
BRANCH   5  17
ATOM     17  C   LIG    1        1.047   0.128   1.665  0.00  0.00    +0.112 C 
BRANCH  17  18
ATOM     18  C   LIG    1        2.325   0.196   0.807  0.00  0.00    +0.176 C 
BRANCH  18  19
ATOM     19  O   LIG    1        1.995   0.542  -0.536  0.00  0.00    -0.366 OA
BRANCH  19  20
ATOM     20  C   LIG    1        3.087   0.571  -1.460  0.00  0.00    +0.178 C 
BRANCH  20  21
ATOM     21  C   LIG    1        3.575  -0.849  -1.757  0.00  0.00    -0.015 A 
ATOM     22  C   LIG    1        2.657  -1.853  -2.083  0.00  0.00    +0.006 A 
ATOM     23  C   LIG    1        3.099  -3.149  -2.330  0.00  0.00    +0.000 A 
ATOM     24  C   LIG    1        4.458  -3.442  -2.246  0.00  0.00    +0.000 A 
ATOM     25  C   LIG    1        5.379  -2.450  -1.917  0.00  0.00    +0.000 A 
ATOM     26  C   LIG    1        4.937  -1.153  -1.668  0.00  0.00    +0.006 A 
ENDBRANCH  20  21
BRANCH  20  27
ATOM     27  C   LIG    1        2.694   1.327  -2.733  0.00  0.00    -0.015 A 
ATOM     28  C   LIG    1        1.361   1.660  -3.008  0.00  0.00    +0.006 A 
ATOM     29  C   LIG    1        1.039   2.361  -4.167  0.00  0.00    +0.000 A 
ATOM     30  C   LIG    1        2.047   2.733  -5.052  0.00  0.00    +0.000 A 
ATOM     31  C   LIG    1        3.376   2.412  -4.787  0.00  0.00    +0.000 A 
ATOM     32  C   LIG    1        3.698   1.712  -3.628  0.00  0.00    +0.006 A 
ENDBRANCH  20  27
ENDBRANCH  19  20
ENDBRANCH  18  19
ENDBRANCH  17  18
ENDBRANCH   5  17
TORSDOF 9
