REMARK  Name = DB17035
REMARK                            x       y       z     vdW  Elec       q    Type
REMARK                         _______ _______ _______ _____ _____    ______ ____
ROOT
ATOM      1  C   LIG    1        0.799   0.259  -3.085  0.00  0.00    -0.040 A 
ATOM      2  C   LIG    1        1.336  -0.966  -3.482  0.00  0.00    +0.004 A 
ATOM      3  C   LIG    1        0.576  -1.847  -4.246  0.00  0.00    +0.009 A 
ATOM      4  C   LIG    1       -0.730  -1.519  -4.634  0.00  0.00    -0.018 A 
ATOM      5  C   LIG    1       -1.253  -0.280  -4.237  0.00  0.00    +0.009 A 
ATOM      6  C   LIG    1       -0.497   0.603  -3.472  0.00  0.00    +0.004 A 
ENDROOT
BRANCH   4   7
ATOM      7  C   LIG    1       -1.547  -2.467  -5.454  0.00  0.00    -0.018 A 
ATOM      8  C   LIG    1       -2.937  -2.551  -5.283  0.00  0.00    +0.008 A 
ATOM      9  C   LIG    1       -3.698  -3.433  -6.045  0.00  0.00    +0.001 A 
ATOM     10  C   LIG    1       -3.074  -4.243  -6.990  0.00  0.00    +0.000 A 
ATOM     11  C   LIG    1       -1.697  -4.177  -7.175  0.00  0.00    +0.001 A 
ATOM     12  C   LIG    1       -0.939  -3.294  -6.411  0.00  0.00    +0.008 A 
ENDBRANCH   4   7
BRANCH   1  13
ATOM     13  C   LIG    1        1.622   1.220  -2.231  0.00  0.00    +0.113 C 
BRANCH  13  18
ATOM     14  C   LIG    1        0.123  -2.557   0.287  0.00  0.00    +0.133 C 
ATOM     15  N   LIG    1       -0.530  -1.257   0.482  0.00  0.00    -0.288 N 
ATOM     16  C   LIG    1        0.003  -0.047   0.161  0.00  0.00    +0.340 C 
ATOM     17  N   LIG    1        1.426   0.001   0.050  0.00  0.00    -0.147 N 
ATOM     18  C   LIG    1        2.175   0.579  -0.963  0.00  0.00    +0.165 A 
ATOM     19  N   LIG    1        3.454   0.487  -0.690  0.00  0.00    -0.113 NA
ATOM     20  N   LIG    1        3.535  -0.169   0.531  0.00  0.00    -0.023 NA
ATOM     21  N   LIG    1        2.268  -0.460   0.992  0.00  0.00    -0.035 NA
ATOM     22  O   LIG    1       -0.660   0.975  -0.030  0.00  0.00    -0.247 OA
ATOM     23  C   LIG    1       -1.895  -1.370   0.996  0.00  0.00    +0.133 C 
ENDBRANCH  13  18
ENDBRANCH   1  13
TORSDOF 3
