REMARK  Name = DB17030
REMARK                            x       y       z     vdW  Elec       q    Type
REMARK                         _______ _______ _______ _____ _____    ______ ____
ROOT
ATOM      1  C   LIG    1        1.376   0.659  -0.439  0.00  0.00    +0.132 A 
ATOM      2  C   LIG    1        1.977   0.141   0.709  0.00  0.00    +0.046 A 
ATOM      3  C   LIG    1        3.358  -0.035   0.757  0.00  0.00    +0.005 A 
ATOM      4  C   LIG    1        4.144   0.298  -0.346  0.00  0.00    +0.023 A 
ATOM      5  C   LIG    1        3.558   0.802  -1.512  0.00  0.00    +0.037 A 
ATOM      6  C   LIG    1        2.163   0.975  -1.551  0.00  0.00    +0.069 A 
ENDROOT
BRANCH   5   7
ATOM      7  N   LIG    1        4.441   1.126  -2.560  0.00  0.00    -0.281 N 
ATOM      8  H   LIG    1        5.417   1.077  -2.308  0.00  0.00    +0.155 HD
ATOM      9  C   LIG    1        4.176   1.499  -3.834  0.00  0.00    +0.248 C 
ATOM     10  O   LIG    1        3.047   1.564  -4.323  0.00  0.00    -0.270 OA
BRANCH   9  11
ATOM     11  C   LIG    1        5.381   1.880  -4.669  0.00  0.00    +0.037 A 
ATOM     12  C   LIG    1        6.676   1.456  -4.332  0.00  0.00    +0.016 A 
ATOM     13  C   LIG    1        7.769   1.827  -5.112  0.00  0.00    +0.046 A 
ATOM     14  C   LIG    1        7.588   2.632  -6.245  0.00  0.00    +0.121 A 
ATOM     15  C   LIG    1        6.302   3.047  -6.586  0.00  0.00    +0.046 A 
ATOM     16  C   LIG    1        5.209   2.674  -5.811  0.00  0.00    +0.016 A 
BRANCH  14  17
ATOM     17  O   LIG    1        8.610   3.060  -7.071  0.00  0.00    -0.491 OA
BRANCH  17  18
ATOM     18  C   LIG    1        9.947   2.640  -6.809  0.00  0.00    +0.244 C 
BRANCH  18  19
ATOM     19  C   LIG    1       10.905   3.255  -7.850  0.00  0.00    +0.125 C 
BRANCH  19  20
ATOM     20  N   LIG    1       10.524   2.991  -9.243  0.00  0.00    -0.295 NA
ATOM     21  C   LIG    1       10.516   1.561  -9.588  0.00  0.00    +0.112 C 
ATOM     22  C   LIG    1       10.201   1.339 -11.083  0.00  0.00    +0.175 C 
ATOM     23  O   LIG    1       11.099   2.090 -11.892  0.00  0.00    -0.377 OA
ATOM     24  C   LIG    1       11.017   3.487 -11.636  0.00  0.00    +0.175 C 
ATOM     25  C   LIG    1       11.364   3.774 -10.160  0.00  0.00    +0.112 C 
ENDBRANCH  19  20
ENDBRANCH  18  19
ENDBRANCH  17  18
ENDBRANCH  14  17
ENDBRANCH   9  11
ENDBRANCH   5   7
BRANCH   1  26
ATOM     26  O   LIG    1        0.007   0.817  -0.470  0.00  0.00    -0.438 OA
BRANCH  26  30
ATOM     27  N   LIG    1       -3.862   3.823  -0.969  0.00  0.00    -0.322 N 
ATOM     28  C   LIG    1       -2.565   3.363  -0.831  0.00  0.00    +0.076 A 
ATOM     29  C   LIG    1       -1.987   2.092  -0.711  0.00  0.00    +0.095 A 
ATOM     30  C   LIG    1       -0.594   2.059  -0.584  0.00  0.00    +0.223 A 
ATOM     31  N   LIG    1        0.189   3.179  -0.564  0.00  0.00    -0.219 NA
ATOM     32  C   LIG    1       -0.392   4.399  -0.683  0.00  0.00    +0.144 A 
ATOM     33  C   LIG    1       -1.778   4.534  -0.822  0.00  0.00    +0.108 A 
ATOM     34  N   LIG    1       -2.549   5.652  -0.960  0.00  0.00    -0.224 NA
ATOM     35  C   LIG    1       -3.783   5.213  -1.063  0.00  0.00    +0.167 A 
BRANCH  35  36
ATOM     36  C   LIG    1       -4.916   6.145  -1.273  0.00  0.00    +0.190 A 
ATOM     37  C   LIG    1       -5.001   7.501  -0.924  0.00  0.00    +0.191 A 
ATOM     38  N   LIG    1       -6.160   7.993  -1.276  0.00  0.00    -0.033 NA
ATOM     39  O   LIG    1       -6.823   6.922  -1.867  0.00  0.00    -0.240 OA
ATOM     40  N   LIG    1       -6.031   5.778  -1.860  0.00  0.00    -0.044 NA
BRANCH  37  41
ATOM     41  N   LIG    1       -4.079   8.294  -0.303  0.00  0.00    -0.339 N 
ATOM     42  H   LIG    1       -4.265   9.267  -0.102  0.00  0.00    +0.144 HD
ATOM     43  H   LIG    1       -3.169   7.941  -0.042  0.00  0.00    +0.144 HD
ENDBRANCH  37  41
ENDBRANCH  35  36
BRANCH  27  45
ATOM     44  C   LIG    1       -5.292   2.477  -2.465  0.00  0.00    +0.027 C 
ATOM     45  C   LIG    1       -5.049   2.971  -1.030  0.00  0.00    +0.120 C 
ENDBRANCH  27  45
ENDBRANCH  26  30
ENDBRANCH   1  26
TORSDOF 11
