REMARK  Name = DB17079
REMARK                            x       y       z     vdW  Elec       q    Type
REMARK                         _______ _______ _______ _____ _____    ______ ____
ROOT
ATOM      1  C   LIG    1        1.561   0.020   0.069  0.00  0.00    +0.079 A 
ATOM      2  N   LIG    1        2.146   1.235   0.266  0.00  0.00    -0.214 NA
ATOM      3  C   LIG    1        3.504   1.294   0.299  0.00  0.00    +0.220 A 
ATOM      4  N   LIG    1        4.327   0.223   0.150  0.00  0.00    -0.199 NA
ATOM      5  C   LIG    1        3.745  -0.989  -0.055  0.00  0.00    +0.127 A 
ATOM      6  C   LIG    1        2.351  -1.129  -0.102  0.00  0.00    +0.072 A 
ENDROOT
BRANCH   3   7
ATOM      7  N   LIG    1        4.096   2.549   0.501  0.00  0.00    -0.294 N 
ATOM      8  C   LIG    1        5.534   2.834   0.552  0.00  0.00    +0.183 C 
ATOM      9  C   LIG    1        5.704   4.352   0.532  0.00  0.00    +0.266 C 
ATOM     10  F   LIG    1        6.761   4.745   1.243  0.00  0.00    -0.204 F 
ATOM     11  F   LIG    1        5.832   4.785  -0.725  0.00  0.00    -0.204 F 
ATOM     12  C   LIG    1        4.411   4.868   1.132  0.00  0.00    +0.096 C 
ATOM     13  C   LIG    1        3.391   3.822   0.684  0.00  0.00    +0.114 C 
ENDBRANCH   3   7
BRANCH   5  14
ATOM     14  N   LIG    1        4.599  -2.090  -0.201  0.00  0.00    -0.307 N 
ATOM     15  C   LIG    1        6.071  -2.117  -0.188  0.00  0.00    +0.103 C 
ATOM     16  C   LIG    1        6.570  -2.336  -1.629  0.00  0.00    +0.182 C 
ATOM     17  O   LIG    1        6.230  -3.720  -1.811  0.00  0.00    -0.373 OA
ATOM     18  C   LIG    1        5.595  -4.175  -0.607  0.00  0.00    +0.137 C 
ATOM     19  C   LIG    1        6.422  -3.450   0.432  0.00  0.00    +0.058 C 
ATOM     20  C   LIG    1        4.231  -3.480  -0.482  0.00  0.00    +0.138 C 
ENDBRANCH   5  14
BRANCH   1  24
ATOM     21  C   LIG    1       -2.720  -0.131  -0.004  0.00  0.00    +0.159 A 
ATOM     22  C   LIG    1       -2.113   1.130  -0.076  0.00  0.00    +0.167 A 
ATOM     23  C   LIG    1       -0.707   1.169  -0.060  0.00  0.00    +0.061 A 
ATOM     24  C   LIG    1        0.059  -0.007   0.039  0.00  0.00    +0.022 A 
ATOM     25  C   LIG    1       -0.661  -1.208   0.115  0.00  0.00    +0.123 A 
ATOM     26  N   LIG    1       -2.014  -1.283   0.093  0.00  0.00    -0.236 NA
BRANCH  21  27
ATOM     27  N   LIG    1       -4.109  -0.259  -0.024  0.00  0.00    -0.340 N 
ATOM     28  H   LIG    1       -4.523  -1.179   0.032  0.00  0.00    +0.144 HD
ATOM     29  H   LIG    1       -4.683   0.569  -0.093  0.00  0.00    +0.144 HD
ENDBRANCH  21  27
BRANCH  22  30
ATOM     30  O   LIG    1       -2.920   2.251  -0.181  0.00  0.00    -0.431 OA
BRANCH  30  31
ATOM     31  C   LIG    1       -2.353   3.546   0.001  0.00  0.00    +0.541 C 
ATOM     32  F   LIG    1       -1.721   3.951  -1.101  0.00  0.00    -0.166 F 
ATOM     33  F   LIG    1       -3.332   4.407   0.276  0.00  0.00    -0.166 F 
ENDBRANCH  30  31
ENDBRANCH  22  30
ENDBRANCH   1  24
TORSDOF 6
