REMARK  Name = DB17856
REMARK                            x       y       z     vdW  Elec       q    Type
REMARK                         _______ _______ _______ _____ _____    ______ ____
ROOT
ATOM      1  C   LIG    1        1.374  -0.016  -0.002  0.00  0.00    +0.158 C 
ATOM      2  C   LIG    1        1.890  -0.649  -1.297  0.00  0.00    +0.037 C 
ATOM      3  C   LIG    1        1.313  -0.312  -2.528  0.00  0.00    +0.024 C 
ATOM      4  C   LIG    1        1.770  -0.853  -3.725  0.00  0.00    +0.081 C 
ATOM      5  N   LIG    1        2.819  -1.735  -3.716  0.00  0.00    -0.267 NA
ATOM      6  C   LIG    1        3.440  -2.087  -2.495  0.00  0.00    +0.130 C 
ATOM      7  N   LIG    1        4.430  -2.957  -2.822  0.00  0.00    -0.286 NA
ATOM      8  H   LIG    1        5.061  -3.395  -2.166  0.00  0.00    +0.124 HD
ATOM      9  C   LIG    1        4.463  -3.171  -4.182  0.00  0.00    +0.058 C 
ATOM     10  C   LIG    1        5.486  -4.105  -4.784  0.00  0.00    +0.031 C 
ATOM     11  C   LIG    1        3.450  -2.406  -4.760  0.00  0.00    +0.061 C 
ATOM     12  C   LIG    1        3.011  -2.237  -6.201  0.00  0.00    +0.032 C 
ATOM     13  C   LIG    1        2.987  -1.538  -1.280  0.00  0.00    +0.086 C 
ATOM     14  N   LIG    1        3.632  -1.906  -0.083  0.00  0.00    -0.297 NA
ATOM     15  H   LIG    1        4.503  -2.416  -0.096  0.00  0.00    +0.123 HD
ATOM     16  C   LIG    1        3.366  -1.150   1.143  0.00  0.00    +0.116 C 
ATOM     17  C   LIG    1        1.861  -0.789   1.245  0.00  0.00    +0.165 C 
ENDROOT
BRANCH  16  18
ATOM     18  C   LIG    1        3.925  -1.815   2.402  0.00  0.00    -0.028 A 
ATOM     19  C   LIG    1        3.560  -3.127   2.728  0.00  0.00    +0.005 A 
ATOM     20  C   LIG    1        4.061  -3.724   3.882  0.00  0.00    +0.000 A 
ATOM     21  C   LIG    1        4.922  -3.009   4.711  0.00  0.00    +0.000 A 
ATOM     22  C   LIG    1        5.285  -1.701   4.398  0.00  0.00    +0.000 A 
ATOM     23  C   LIG    1        4.784  -1.103   3.245  0.00  0.00    +0.005 A 
ENDBRANCH  16  18
BRANCH  17  24
ATOM     24  O   LIG    1        1.577  -0.045   2.418  0.00  0.00    -0.387 OA
ATOM     25  H   LIG    1        1.618   0.891   2.208  0.00  0.00    +0.210 HD
ENDBRANCH  17  24
BRANCH   1  26
ATOM     26  O   LIG    1       -0.056   0.020  -0.003  0.00  0.00    -0.371 OA
BRANCH  26  27
ATOM     27  C   LIG    1       -0.638   1.316   0.075  0.00  0.00    +0.188 C 
BRANCH  27  28
ATOM     28  C   LIG    1       -2.165   1.184   0.039  0.00  0.00    +0.187 C 
BRANCH  28  30
ATOM     29  C   LIG    1       -4.158   2.475   0.023  0.00  0.00    +0.194 C 
ATOM     30  O   LIG    1       -2.739   2.484   0.053  0.00  0.00    -0.381 OA
ENDBRANCH  28  30
ENDBRANCH  27  28
ENDBRANCH  26  27
ENDBRANCH   1  26
TORSDOF 6
