REMARK  Name = DB17102
REMARK                            x       y       z     vdW  Elec       q    Type
REMARK                         _______ _______ _______ _____ _____    ______ ____
ROOT
ATOM      1  C   LIG    1        2.501  -3.160   0.016  0.00  0.00    +0.079 A 
ATOM      2  C   LIG    1        2.267  -3.952  -1.120  0.00  0.00    +0.033 A 
ATOM      3  C   LIG    1        2.636  -5.294  -1.159  0.00  0.00    +0.036 A 
ATOM      4  I   LIG    1        2.241  -6.391  -2.904  0.00  0.00    -0.042 I 
ATOM      5  C   LIG    1        3.251  -5.871  -0.045  0.00  0.00    +0.050 A 
ATOM      6  C   LIG    1        3.486  -5.099   1.096  0.00  0.00    +0.070 A 
ATOM      7  C   LIG    1        3.121  -3.741   1.145  0.00  0.00    +0.134 A 
ENDROOT
BRANCH   1  10
ATOM      8  N   LIG    1        2.172  -1.062  -1.160  0.00  0.00    -0.313 N 
ATOM      9  H   LIG    1        2.572  -1.557  -1.944  0.00  0.00    +0.149 HD
ATOM     10  C   LIG    1        2.065  -1.710   0.017  0.00  0.00    +0.248 C 
ATOM     11  O   LIG    1        1.641  -1.172   1.042  0.00  0.00    -0.270 OA
BRANCH   8  12
ATOM     12  C   LIG    1        1.776   0.326  -1.404  0.00  0.00    +0.086 C 
BRANCH  12  13
ATOM     13  C   LIG    1        0.244   0.521  -1.517  0.00  0.00    -0.060 C 
BRANCH  13  14
ATOM     14  N   LIG    1       -0.372   0.869  -0.137  0.00  0.00    +0.380 N 
ATOM     15  H   LIG    1        0.157   0.345   0.548  0.00  0.00    -0.082 HD
BRANCH  14  17
ATOM     16  C   LIG    1       -1.896  -1.119   0.254  0.00  0.00    -0.017 C 
ATOM     17  C   LIG    1       -1.840   0.396  -0.004  0.00  0.00    -0.082 C 
ENDBRANCH  14  17
BRANCH  14  18
ATOM     18  C   LIG    1       -0.188   2.365   0.219  0.00  0.00    -0.082 C 
ATOM     19  C   LIG    1       -0.212   2.567   1.743  0.00  0.00    -0.017 C 
ENDBRANCH  14  18
ENDBRANCH  13  14
ENDBRANCH  12  13
ENDBRANCH   8  12
ENDBRANCH   1  10
BRANCH   5  20
ATOM     20  N   LIG    1        3.623  -7.219  -0.075  0.00  0.00    -0.280 N 
ATOM     21  H   LIG    1        2.884  -7.888  -0.236  0.00  0.00    +0.155 HD
ATOM     22  C   LIG    1        4.895  -7.671  -0.012  0.00  0.00    +0.248 C 
ATOM     23  O   LIG    1        5.870  -6.933   0.156  0.00  0.00    -0.270 OA
BRANCH  22  24
ATOM     24  C   LIG    1        5.076  -9.168  -0.135  0.00  0.00    +0.037 A 
ATOM     25  C   LIG    1        4.100  -9.976  -0.743  0.00  0.00    +0.016 A 
ATOM     26  C   LIG    1        4.290 -11.351  -0.853  0.00  0.00    +0.039 A 
ATOM     27  C   LIG    1        5.456 -11.930  -0.359  0.00  0.00    +0.123 A 
ATOM     28  F   LIG    1        5.640 -13.265  -0.466  0.00  0.00    -0.205 F 
ATOM     29  C   LIG    1        6.434 -11.144   0.243  0.00  0.00    +0.039 A 
ATOM     30  C   LIG    1        6.246  -9.769   0.353  0.00  0.00    +0.016 A 
ENDBRANCH  22  24
ENDBRANCH   5  20
BRANCH   7  31
ATOM     31  O   LIG    1        3.360  -2.946   2.255  0.00  0.00    -0.494 OA
ATOM     32  C   LIG    1        3.983  -3.501   3.409  0.00  0.00    +0.277 C 
ENDBRANCH   7  31
TORSDOF 9
