REMARK  Name = DB17269
REMARK                            x       y       z     vdW  Elec       q    Type
REMARK                         _______ _______ _______ _____ _____    ______ ____
ROOT
ATOM      1  N   LIG    1        1.248  -0.279  -0.316  0.00  0.00    -0.266 N 
ATOM      2  H   LIG    1        1.642   0.649  -0.349  0.00  0.00    +0.157 HD
ATOM      3  C   LIG    1        2.127  -1.309  -0.291  0.00  0.00    +0.249 C 
ATOM      4  O   LIG    1        1.802  -2.498  -0.259  0.00  0.00    -0.270 OA
ENDROOT
BRANCH   1  11
ATOM      5  C   LIG    1       -4.313   2.246  -0.035  0.00  0.00    -0.014 A 
ATOM      6  C   LIG    1       -5.018   1.038  -0.020  0.00  0.00    +0.009 A 
ATOM      7  C   LIG    1       -4.357  -0.187  -0.073  0.00  0.00    +0.010 A 
ATOM      8  C   LIG    1       -2.946  -0.225  -0.142  0.00  0.00    +0.000 A 
ATOM      9  C   LIG    1       -2.203  -1.424  -0.196  0.00  0.00    +0.121 A 
ATOM     10  N   LIG    1       -0.853  -1.482  -0.256  0.00  0.00    -0.239 NA
ATOM     11  C   LIG    1       -0.158  -0.310  -0.267  0.00  0.00    +0.126 A 
ATOM     12  C   LIG    1       -0.793   0.936  -0.225  0.00  0.00    +0.052 A 
ATOM     13  C   LIG    1       -2.210   0.996  -0.158  0.00  0.00    -0.013 A 
ATOM     14  C   LIG    1       -2.915   2.223  -0.105  0.00  0.00    +0.017 A 
BRANCH   5  19
ATOM     15  C   LIG    1       -7.843   5.870   0.093  0.00  0.00    +0.172 C 
ATOM     16  N   LIG    1       -6.594   5.129   0.085  0.00  0.00    -0.274 N 
ATOM     17  N   LIG    1       -5.436   5.794   0.126  0.00  0.00    -0.179 NA
ATOM     18  C   LIG    1       -4.519   4.854   0.093  0.00  0.00    +0.142 A 
ATOM     19  C   LIG    1       -5.045   3.549   0.023  0.00  0.00    +0.020 A 
ATOM     20  C   LIG    1       -6.417   3.772   0.021  0.00  0.00    +0.116 A 
ENDBRANCH   5  19
ENDBRANCH   1  11
BRANCH   3  21
ATOM     21  C   LIG    1        3.593  -0.925  -0.307  0.00  0.00    +0.042 A 
ATOM     22  C   LIG    1        4.026   0.380  -0.002  0.00  0.00    +0.056 A 
ATOM     23  C   LIG    1        5.396   0.690  -0.005  0.00  0.00    +0.122 A 
ATOM     24  N   LIG    1        6.323  -0.254  -0.336  0.00  0.00    -0.240 NA
ATOM     25  C   LIG    1        5.909  -1.510  -0.629  0.00  0.00    +0.113 A 
ATOM     26  C   LIG    1        4.567  -1.883  -0.621  0.00  0.00    +0.033 A 
BRANCH  23  27
ATOM     27  N   LIG    1        5.857   1.984   0.265  0.00  0.00    -0.319 N 
ATOM     28  C   LIG    1        7.295   2.333   0.262  0.00  0.00    +0.088 C 
ATOM     29  C   LIG    1        7.984   2.065   1.621  0.00  0.00    -0.060 C 
ATOM     30  N   LIG    1        7.287   2.917   2.701  0.00  0.00    +0.380 N 
ATOM     31  H   LIG    1        7.390   3.892   2.455  0.00  0.00    -0.082 HD
ATOM     32  C   LIG    1        7.914   2.667   4.086  0.00  0.00    -0.096 C 
ATOM     33  C   LIG    1        5.784   2.572   2.711  0.00  0.00    -0.060 C 
ATOM     34  C   LIG    1        5.213   2.823   1.296  0.00  0.00    +0.088 C 
ENDBRANCH  23  27
ENDBRANCH   3  21
TORSDOF 4
