REMARK  Name = DB17490
REMARK                            x       y       z     vdW  Elec       q    Type
REMARK                         _______ _______ _______ _____ _____    ______ ____
ROOT
ATOM      1  N   LIG    1        1.536  -0.003  -0.396  0.00  0.00    -0.334 N 
ATOM      2  H   LIG    1        1.939  -0.476   0.401  0.00  0.00    +0.147 HD
ENDROOT
BRANCH   1   3
ATOM      3  C   LIG    1        2.388   0.437  -1.373  0.00  0.00    +0.072 C 
ATOM      4  S   LIG    1        1.935   1.125  -2.841  0.00  0.00    -0.036 S 
BRANCH   3   5
ATOM      5  C   LIG    1        3.758   0.225  -0.992  0.00  0.00    +0.031 C 
ATOM      6  C   LIG    1        4.872   0.462  -1.728  0.00  0.00    +0.011 C 
BRANCH   6   7
ATOM      7  C   LIG    1        6.263   0.236  -1.277  0.00  0.00    -0.007 A 
ATOM      8  C   LIG    1        6.600   0.385   0.075  0.00  0.00    +0.013 A 
ATOM      9  C   LIG    1        7.902   0.162   0.516  0.00  0.00    +0.050 A 
ATOM     10  C   LIG    1        8.891  -0.222  -0.387  0.00  0.00    +0.159 A 
ATOM     11  C   LIG    1        8.572  -0.387  -1.740  0.00  0.00    +0.173 A 
ATOM     12  C   LIG    1        7.261  -0.162  -2.186  0.00  0.00    +0.070 A 
ATOM     13 BR   LIG    1        6.851  -0.416  -4.039  0.00  0.00    -0.046 Br
BRANCH  10  14
ATOM     14  O   LIG    1       10.167  -0.435   0.072  0.00  0.00    -0.503 OA
ATOM     15  H   LIG    1       10.258  -0.286   1.016  0.00  0.00    +0.292 HD
ENDBRANCH  10  14
BRANCH  11  16
ATOM     16  O   LIG    1        9.546  -0.773  -2.628  0.00  0.00    -0.503 OA
ATOM     17  H   LIG    1       10.399  -0.903  -2.206  0.00  0.00    +0.292 HD
ENDBRANCH  11  16
ENDBRANCH   6   7
ENDBRANCH   3   5
ENDBRANCH   1   3
BRANCH   1  18
ATOM     18  C   LIG    1        0.068   0.052  -0.452  0.00  0.00    +0.137 C 
BRANCH  18  23
ATOM     19  C   LIG    1       -1.996   3.222  -0.987  0.00  0.00    +0.162 A 
ATOM     20  C   LIG    1       -1.648   3.984   0.136  0.00  0.00    +0.201 A 
ATOM     21  C   LIG    1       -0.743   3.466   1.073  0.00  0.00    +0.162 A 
ATOM     22  C   LIG    1       -0.192   2.197   0.882  0.00  0.00    +0.054 A 
ATOM     23  C   LIG    1       -0.537   1.436  -0.239  0.00  0.00    -0.023 A 
ATOM     24  C   LIG    1       -1.442   1.954  -1.169  0.00  0.00    +0.054 A 
BRANCH  19  25
ATOM     25  O   LIG    1       -2.878   3.704  -1.922  0.00  0.00    -0.503 OA
ATOM     26  H   LIG    1       -3.030   3.091  -2.645  0.00  0.00    +0.292 HD
ENDBRANCH  19  25
BRANCH  20  27
ATOM     27  O   LIG    1       -2.193   5.234   0.316  0.00  0.00    -0.501 OA
ATOM     28  H   LIG    1       -2.792   5.480  -0.393  0.00  0.00    +0.292 HD
ENDBRANCH  20  27
BRANCH  21  29
ATOM     29  O   LIG    1       -0.384   4.186   2.185  0.00  0.00    -0.503 OA
ATOM     30  H   LIG    1        0.241   3.724   2.748  0.00  0.00    +0.292 HD
ENDBRANCH  21  29
ENDBRANCH  18  23
ENDBRANCH   1  18
TORSDOF 10
