REMARK  Name = DB17171
REMARK                            x       y       z     vdW  Elec       q    Type
REMARK                         _______ _______ _______ _____ _____    ______ ____
ROOT
ATOM      1  C   LIG    1       -2.415   3.278   1.212  0.00  0.00    +0.068 C 
ATOM      2  C   LIG    1       -2.801   2.362   0.034  0.00  0.00    +0.003 C 
ATOM      3  C   LIG    1       -2.074   1.008   0.113  0.00  0.00    -0.077 C 
ATOM      4  N   LIG    1       -0.547   1.259   0.150  0.00  0.00    +0.382 N 
ATOM      5  H   LIG    1       -0.299   1.760  -0.691  0.00  0.00    -0.081 HD
ATOM      6  C   LIG    1       -0.142   2.137   1.360  0.00  0.00    -0.077 C 
ATOM      7  C   LIG    1       -0.886   3.480   1.275  0.00  0.00    +0.003 C 
ENDROOT
BRANCH   1   8
ATOM      8  N   LIG    1       -3.067   4.576   1.032  0.00  0.00    -0.326 N 
ATOM      9  H   LIG    1       -2.946   5.020   0.133  0.00  0.00    +0.148 HD
BRANCH   8  17
ATOM     10  C   LIG    1       -3.334   5.878   4.411  0.00  0.00    +0.218 A 
ATOM     11  N   LIG    1       -3.707   7.176   4.277  0.00  0.00    -0.207 NA
ATOM     12  C   LIG    1       -3.866   7.591   3.017  0.00  0.00    +0.115 A 
ATOM     13  S   LIG    1       -4.342   9.220   2.590  0.00  0.00    -0.073 S 
ATOM     14  C   LIG    1       -4.286   8.835   0.872  0.00  0.00    +0.001 A 
ATOM     15  C   LIG    1       -3.916   7.514   0.669  0.00  0.00    +0.025 A 
ATOM     16  C   LIG    1       -3.671   6.783   1.867  0.00  0.00    +0.048 A 
ATOM     17  C   LIG    1       -3.280   5.450   2.115  0.00  0.00    +0.132 A 
ATOM     18  N   LIG    1       -3.116   5.004   3.391  0.00  0.00    -0.199 NA
BRANCH  10  20
ATOM     19  C   LIG    1       -2.794   4.069   6.053  0.00  0.00    +0.128 C 
ATOM     20  N   LIG    1       -3.168   5.441   5.735  0.00  0.00    -0.316 N 
ATOM     21  H   LIG    1       -3.342   6.085   6.493  0.00  0.00    +0.149 HD
ENDBRANCH  10  20
BRANCH  14  22
ATOM     22  C   LIG    1       -4.613   9.886  -0.173  0.00  0.00    +0.155 C 
BRANCH  22  23
ATOM     23  C   LIG    1       -6.110  10.250  -0.243  0.00  0.00    +0.394 C 
ATOM     24  F   LIG    1       -6.534  10.861   0.863  0.00  0.00    -0.170 F 
ATOM     25  F   LIG    1       -6.872   9.174  -0.442  0.00  0.00    -0.170 F 
ATOM     26  F   LIG    1       -6.333  11.081  -1.260  0.00  0.00    -0.170 F 
ENDBRANCH  22  23
ENDBRANCH  14  22
ENDBRANCH   8  17
ENDBRANCH   1   8
BRANCH   4  27
ATOM     27  C   LIG    1        0.218  -0.086   0.154  0.00  0.00    -0.043 C 
BRANCH  27  28
ATOM     28  C   LIG    1        1.725   0.048  -0.066  0.00  0.00    -0.060 A 
ATOM     29  C   LIG    1        2.267   0.270  -1.347  0.00  0.00    -0.040 A 
ATOM     30  C   LIG    1        1.355   0.388  -2.564  0.00  0.00    +0.044 C 
ATOM     31  C   LIG    1        3.668   0.382  -1.465  0.00  0.00    +0.004 A 
ATOM     32  C   LIG    1        4.557   0.605  -2.564  0.00  0.00    +0.047 A 
ATOM     33  C   LIG    1        5.847   0.631  -2.078  0.00  0.00    +0.121 A 
ATOM     34  N   LIG    1        5.812   0.425  -0.705  0.00  0.00    -0.330 N 
ATOM     35  C   LIG    1        4.490   0.265  -0.305  0.00  0.00    +0.050 A 
ATOM     36  C   LIG    1        3.943   0.030   0.960  0.00  0.00    +0.026 A 
ATOM     37  C   LIG    1        2.559  -0.077   1.046  0.00  0.00    +0.004 A 
BRANCH  33  38
ATOM     38  C   LIG    1        7.085   0.841  -2.820  0.00  0.00    +0.117 C 
ATOM     39  N   LIG    1        8.068   1.009  -3.407  0.00  0.00    -0.189 NA
ENDBRANCH  33  38
BRANCH  34  40
ATOM     40  C   LIG    1        6.958   0.398   0.218  0.00  0.00    +0.141 C 
BRANCH  40  41
ATOM     41  C   LIG    1        7.045   1.694   1.083  0.00  0.00    +0.073 C 
ATOM     42  C   LIG    1        7.286   2.930   0.175  0.00  0.00    +0.026 C 
BRANCH  41  43
ATOM     43  N   LIG    1        8.073   1.509   2.136  0.00  0.00    -0.295 NA
ATOM     44  C   LIG    1        8.590   2.760   2.740  0.00  0.00    +0.102 C 
ATOM     45  C   LIG    1        9.730   2.446   3.736  0.00  0.00    +0.124 C 
ATOM     46  N   LIG    1        9.225   1.544   4.793  0.00  0.00    -0.179 NA
ATOM     47  C   LIG    1        8.702   0.287   4.214  0.00  0.00    +0.124 C 
ATOM     48  C   LIG    1        7.572   0.623   3.216  0.00  0.00    +0.102 C 
BRANCH  46  49
ATOM     49  S   LIG    1       10.257   1.373   6.221  0.00  0.00    +0.029 S 
ATOM     50  O   LIG    1       11.650   1.308   5.766  0.00  0.00    -0.158 OA
ATOM     51  O   LIG    1        9.704   0.302   7.058  0.00  0.00    -0.158 OA
ATOM     52  C   LIG    1       10.012   3.005   7.135  0.00  0.00    +0.215 C 
ENDBRANCH  46  49
ENDBRANCH  41  43
ENDBRANCH  40  41
ENDBRANCH  34  40
ENDBRANCH  27  28
ENDBRANCH   4  27
TORSDOF 12
