REMARK  Name = DB17603
REMARK                            x       y       z     vdW  Elec       q    Type
REMARK                         _______ _______ _______ _____ _____    ______ ____
ROOT
ATOM      1  N   LIG    1       -3.283  -2.246  -0.254  0.00  0.00    -0.263 N 
ATOM      2  C   LIG    1       -2.234  -1.352  -0.115  0.00  0.00    +0.070 A 
ATOM      3  C   LIG    1       -0.860  -1.530   0.068  0.00  0.00    +0.044 A 
ATOM      4  C   LIG    1       -0.059  -0.380   0.179  0.00  0.00    +0.081 A 
ATOM      5  C   LIG    1       -0.634   0.905   0.103  0.00  0.00    +0.141 A 
ATOM      6  C   LIG    1       -2.015   1.063  -0.075  0.00  0.00    +0.058 A 
ATOM      7  C   LIG    1       -2.824  -0.072  -0.193  0.00  0.00    +0.023 A 
ATOM      8  C   LIG    1       -4.213  -0.330  -0.390  0.00  0.00    +0.143 A 
ATOM      9  N   LIG    1       -4.460  -1.613  -0.437  0.00  0.00    -0.178 NA
ENDROOT
BRANCH   4  10
ATOM     10  C   LIG    1        1.432  -0.545   0.377  0.00  0.00    +0.248 C 
ATOM     11  N   LIG    1        2.006  -1.533  -0.334  0.00  0.00    -0.300 N 
ATOM     12  H   LIG    1        1.430  -2.094  -0.945  0.00  0.00    +0.150 HD
ATOM     13  O   LIG    1        2.062   0.200   1.131  0.00  0.00    -0.270 OA
BRANCH  11  14
ATOM     14  C   LIG    1        3.429  -1.874  -0.323  0.00  0.00    +0.157 C 
BRANCH  14  15
ATOM     15  C   LIG    1        3.750  -2.663  -1.608  0.00  0.00    +0.231 C 
ATOM     16  O   LIG    1        3.222  -3.755  -1.811  0.00  0.00    -0.274 OA
ATOM     17  N   LIG    1        4.635  -2.118  -2.449  0.00  0.00    -0.328 N 
ATOM     18  H   LIG    1        4.885  -2.599  -3.301  0.00  0.00    +0.145 HD
ATOM     19  H   LIG    1        5.048  -1.219  -2.247  0.00  0.00    +0.145 HD
ENDBRANCH  14  15
BRANCH  14  20
ATOM     20  C   LIG    1        3.828  -2.643   0.966  0.00  0.00    +0.013 C 
BRANCH  20  21
ATOM     21  C   LIG    1        5.339  -2.963   1.083  0.00  0.00    -0.077 C 
BRANCH  21  22
ATOM     22  N   LIG    1        5.847  -2.805   2.535  0.00  0.00    +0.376 N 
ATOM     23  H   LIG    1        5.570  -1.884   2.847  0.00  0.00    -0.083 HD
ATOM     24  C   LIG    1        7.386  -2.857   2.601  0.00  0.00    -0.097 C 
ATOM     25  C   LIG    1        5.221  -3.830   3.503  0.00  0.00    -0.097 C 
ENDBRANCH  21  22
ENDBRANCH  20  21
ENDBRANCH  14  20
ENDBRANCH  11  14
ENDBRANCH   4  10
BRANCH   1  26
ATOM     26  C   LIG    1       -3.232  -3.706  -0.292  0.00  0.00    +0.147 C 
BRANCH  26  28
ATOM     27  C   LIG    1       -3.565  -3.808  -2.851  0.00  0.00    +0.009 C 
ATOM     28  C   LIG    1       -2.701  -4.237  -1.648  0.00  0.00    +0.004 C 
ATOM     29  C   LIG    1       -2.543  -5.767  -1.607  0.00  0.00    +0.009 C 
ENDBRANCH  26  28
ENDBRANCH   1  26
BRANCH   5  30
ATOM     30  O   LIG    1        0.162   2.027   0.222  0.00  0.00    -0.452 OA
BRANCH  30  31
ATOM     31  C   LIG    1        0.093   3.005  -0.743  0.00  0.00    +0.164 A 
ATOM     32  C   LIG    1        0.508   2.762  -2.060  0.00  0.00    +0.168 A 
ATOM     33  F   LIG    1        0.971   1.542  -2.420  0.00  0.00    -0.202 F 
ATOM     34  C   LIG    1        0.451   3.782  -3.011  0.00  0.00    +0.080 A 
ATOM     35  C   LIG    1       -0.011   5.048  -2.651  0.00  0.00    +0.126 A 
ATOM     36  F   LIG    1       -0.066   6.035  -3.574  0.00  0.00    -0.205 F 
ATOM     37  C   LIG    1       -0.410   5.298  -1.338  0.00  0.00    +0.042 A 
ATOM     38  C   LIG    1       -0.352   4.280  -0.385  0.00  0.00    +0.052 A 
ENDBRANCH  30  31
ENDBRANCH   5  30
TORSDOF 10
