REMARK  Name = DB17757
REMARK                            x       y       z     vdW  Elec       q    Type
REMARK                         _______ _______ _______ _____ _____    ______ ____
ROOT
ATOM      1  C   LIG    1        1.558  -0.005   0.053  0.00  0.00    +0.113 A 
ATOM      2  N   LIG    1        2.166   0.019  -1.167  0.00  0.00    -0.253 NA
ATOM      3  C   LIG    1        3.521  -0.033  -1.214  0.00  0.00    +0.128 A 
ATOM      4  C   LIG    1        4.317  -0.111  -0.069  0.00  0.00    +0.043 A 
ATOM      5  C   LIG    1        3.686  -0.135   1.178  0.00  0.00    +0.020 A 
ATOM      6  C   LIG    1        2.292  -0.081   1.245  0.00  0.00    +0.030 A 
ENDROOT
BRANCH   1   7
ATOM      7  C   LIG    1        0.020   0.075   0.058  0.00  0.00    +0.324 C 
ATOM      8  F   LIG    1       -0.445  -0.647  -0.967  0.00  0.00    -0.195 F 
ATOM      9  F   LIG    1       -0.414  -0.562   1.153  0.00  0.00    -0.195 F 
BRANCH   7  10
ATOM     10  C   LIG    1       -0.537   1.544   0.025  0.00  0.00    +0.182 C 
BRANCH  10  11
ATOM     11  C   LIG    1       -0.030   2.310  -1.231  0.00  0.00    +0.027 A 
ATOM     12  C   LIG    1        0.959   3.316  -1.174  0.00  0.00    +0.132 A 
ATOM     13  F   LIG    1        1.540   3.677  -0.008  0.00  0.00    -0.205 F 
ATOM     14  C   LIG    1        1.378   3.965  -2.336  0.00  0.00    +0.077 A 
ATOM     15  C   LIG    1        0.834   3.623  -3.570  0.00  0.00    +0.126 A 
ATOM     16  F   LIG    1        1.244   4.258  -4.691  0.00  0.00    -0.205 F 
ATOM     17  C   LIG    1       -0.131   2.624  -3.648  0.00  0.00    +0.039 A 
ATOM     18  C   LIG    1       -0.553   1.973  -2.491  0.00  0.00    +0.012 A 
ENDBRANCH  10  11
BRANCH  10  19
ATOM     19  O   LIG    1       -0.137   2.151   1.251  0.00  0.00    -0.376 OA
ATOM     20  H   LIG    1       -0.416   1.587   1.976  0.00  0.00    +0.211 HD
ENDBRANCH  10  19
BRANCH  10  21
ATOM     21  C   LIG    1       -2.103   1.535   0.106  0.00  0.00    +0.193 C 
BRANCH  21  22
ATOM     22  N   LIG    1       -2.705   2.870   0.044  0.00  0.00    -0.229 N 
ATOM     23  N   LIG    1       -3.151   3.378  -1.110  0.00  0.00    -0.044 NA
ATOM     24  N   LIG    1       -3.603   4.644  -0.783  0.00  0.00    -0.023 NA
ATOM     25  N   LIG    1       -3.414   4.887   0.576  0.00  0.00    -0.117 NA
ATOM     26  C   LIG    1       -2.865   3.796   1.045  0.00  0.00    +0.244 A 
ENDBRANCH  21  22
ENDBRANCH  10  21
ENDBRANCH   7  10
ENDBRANCH   1   7
BRANCH   4  27
ATOM     27  C   LIG    1        5.768  -0.165  -0.170  0.00  0.00    -0.060 C 
ATOM     28  C   LIG    1        6.987  -0.209  -0.239  0.00  0.00    -0.061 C 
BRANCH  28  29
ATOM     29  C   LIG    1        8.440  -0.252  -0.308  0.00  0.00    +0.026 A 
ATOM     30  C   LIG    1        9.116  -1.440  -0.026  0.00  0.00    +0.020 A 
ATOM     31  C   LIG    1       10.507  -1.480  -0.088  0.00  0.00    +0.047 A 
ATOM     32  C   LIG    1       11.232  -0.328  -0.433  0.00  0.00    +0.121 A 
ATOM     33  C   LIG    1       10.544   0.853  -0.716  0.00  0.00    +0.047 A 
ATOM     34  C   LIG    1        9.154   0.896  -0.654  0.00  0.00    +0.020 A 
BRANCH  32  35
ATOM     35  O   LIG    1       12.610  -0.270  -0.516  0.00  0.00    -0.487 OA
BRANCH  35  36
ATOM     36  C   LIG    1       13.381  -1.435  -0.222  0.00  0.00    +0.264 C 
BRANCH  36  37
ATOM     37  C   LIG    1       14.873  -1.155  -0.370  0.00  0.00    -0.010 A 
ATOM     38  C   LIG    1       15.340  -0.098  -1.160  0.00  0.00    +0.008 A 
ATOM     39  C   LIG    1       16.708   0.131  -1.285  0.00  0.00    +0.019 A 
ATOM     40  C   LIG    1       17.614  -0.699  -0.623  0.00  0.00    +0.052 A 
ATOM     41  C   LIG    1       17.154  -1.758   0.162  0.00  0.00    +0.019 A 
ATOM     42  C   LIG    1       15.786  -1.986   0.285  0.00  0.00    +0.008 A 
BRANCH  40  43
ATOM     43  C   LIG    1       19.044  -0.461  -0.753  0.00  0.00    +0.099 C 
ATOM     44  N   LIG    1       20.181  -0.271  -0.857  0.00  0.00    -0.191 NA
ENDBRANCH  40  43
ENDBRANCH  36  37
ENDBRANCH  35  36
ENDBRANCH  32  35
ENDBRANCH  28  29
ENDBRANCH   4  27
TORSDOF 12
