REMARK  Name = DB17912
REMARK                            x       y       z     vdW  Elec       q    Type
REMARK                         _______ _______ _______ _____ _____    ______ ____
ROOT
ATOM      1  C   LIG    1        1.723  -1.386   0.196  0.00  0.00    -0.027 C 
ATOM      2  C   LIG    1        2.849  -1.168  -0.514  0.00  0.00    -0.027 C 
ENDROOT
BRANCH   1   3
ATOM      3  C   LIG    1        1.126  -0.503   1.280  0.00  0.00    +0.053 C 
BRANCH   3   5
ATOM      4  C   LIG    1       -0.949   0.750   0.443  0.00  0.00    -0.027 C 
ATOM      5  C   LIG    1       -0.364  -0.258   1.119  0.00  0.00    -0.027 C 
BRANCH   4   6
ATOM      6  C   LIG    1       -0.255   1.839  -0.357  0.00  0.00    +0.053 C 
BRANCH   6   8
ATOM      7  C   LIG    1        0.720   3.949   0.758  0.00  0.00    -0.027 C 
ATOM      8  C   LIG    1       -0.310   3.210   0.299  0.00  0.00    -0.027 C 
BRANCH   7   9
ATOM      9  C   LIG    1        2.196   3.586   0.756  0.00  0.00    +0.053 C 
BRANCH   9  11
ATOM     10  C   LIG    1        4.275   4.680  -0.280  0.00  0.00    -0.031 C 
ATOM     11  C   LIG    1        2.994   4.268  -0.342  0.00  0.00    -0.027 C 
BRANCH  10  13
ATOM     12  C   LIG    1        6.379   3.571   0.629  0.00  0.00    +0.008 C 
ATOM     13  C   LIG    1        5.231   4.553   0.894  0.00  0.00    +0.023 C 
ENDBRANCH  10  13
ENDBRANCH   9  11
ENDBRANCH   7   9
ENDBRANCH   6   8
ENDBRANCH   4   6
ENDBRANCH   3   5
ENDBRANCH   1   3
BRANCH   2  14
ATOM     14  C   LIG    1        3.817  -0.004  -0.384  0.00  0.00    +0.053 C 
BRANCH  14  15
ATOM     15  C   LIG    1        3.759   0.960  -1.556  0.00  0.00    -0.027 C 
ATOM     16  C   LIG    1        4.786   1.390  -2.314  0.00  0.00    -0.031 C 
BRANCH  16  17
ATOM     17  C   LIG    1        6.258   1.040  -2.154  0.00  0.00    +0.027 C 
BRANCH  17  18
ATOM     18  C   LIG    1        6.822   0.141  -3.273  0.00  0.00    +0.015 C 
BRANCH  18  19
ATOM     19  C   LIG    1        6.217  -1.289  -3.351  0.00  0.00    +0.121 C 
BRANCH  19  20
ATOM     20  C   LIG    1        6.498  -2.201  -2.131  0.00  0.00    +0.305 C 
ATOM     21  O   LIG    1        5.677  -3.124  -1.924  0.00  0.00    -0.251 OA
BRANCH  20  22
ATOM     22  O   LIG    1        7.528  -2.013  -1.444  0.00  0.00    -0.481 OA
ATOM     23  H   LIG    1        7.705  -2.561  -0.705  0.00  0.00    +0.295 HD
ENDBRANCH  20  22
ENDBRANCH  19  20
ENDBRANCH  18  19
ENDBRANCH  17  18
ENDBRANCH  16  17
ENDBRANCH  14  15
ENDBRANCH   2  14
TORSDOF 14
