REMARK  Name = DB17149
REMARK                            x       y       z     vdW  Elec       q    Type
REMARK                         _______ _______ _______ _____ _____    ______ ____
ROOT
ATOM      1  C   LIG    1       -0.163  -0.033   0.014  0.00  0.00    +0.158 C 
ATOM      2  C   LIG    1       -0.687  -0.903  -1.158  0.00  0.00    +0.030 A 
ATOM      3  C   LIG    1       -0.207  -2.214  -1.349  0.00  0.00    +0.134 A 
ATOM      4  C   LIG    1       -0.707  -3.066  -2.361  0.00  0.00    +0.078 A 
ATOM      5  C   LIG    1       -0.174  -4.479  -2.543  0.00  0.00    +0.202 C 
ATOM      6  C   LIG    1       -0.357  -5.099  -3.909  0.00  0.00    +0.075 A 
ATOM      7  C   LIG    1        0.465  -6.163  -4.362  0.00  0.00    +0.132 A 
ATOM      8  C   LIG    1        0.234  -6.715  -5.633  0.00  0.00    +0.046 A 
ATOM      9  C   LIG    1       -0.776  -6.229  -6.451  0.00  0.00    +0.004 A 
ATOM     10  C   LIG    1       -1.571  -5.180  -6.017  0.00  0.00    +0.012 A 
ATOM     11  C   LIG    1       -1.378  -4.603  -4.754  0.00  0.00    +0.037 A 
ATOM     12  C   LIG    1       -2.256  -3.460  -4.337  0.00  0.00    +0.198 C 
ATOM     13  O   LIG    1       -3.275  -3.188  -4.978  0.00  0.00    -0.286 OA
ATOM     14  O   LIG    1        0.492  -5.045  -1.673  0.00  0.00    -0.286 OA
ATOM     15  C   LIG    1       -1.724  -2.580  -3.220  0.00  0.00    +0.078 A 
ATOM     16  C   LIG    1       -2.213  -1.270  -3.020  0.00  0.00    +0.132 A 
ATOM     17  C   LIG    1       -1.727  -0.439  -1.996  0.00  0.00    +0.007 A 
ATOM     18  C   LIG    1       -2.317   0.975  -1.810  0.00  0.00    +0.082 C 
ATOM     19  C   LIG    1       -2.148   1.564  -0.388  0.00  0.00    +0.133 C 
ATOM     20  C   LIG    1       -0.660   1.434  -0.020  0.00  0.00    +0.079 C 
ENDROOT
BRANCH   3  21
ATOM     21  O   LIG    1        0.780  -2.652  -0.496  0.00  0.00    -0.506 OA
ATOM     22  H   LIG    1        1.066  -1.967   0.112  0.00  0.00    +0.292 HD
ENDBRANCH   3  21
BRANCH   7  23
ATOM     23  O   LIG    1        1.485  -6.624  -3.543  0.00  0.00    -0.494 OA
ATOM     24  C   LIG    1        2.336  -7.681  -3.975  0.00  0.00    +0.277 C 
ENDBRANCH   7  23
BRANCH  16  25
ATOM     25  O   LIG    1       -3.184  -0.745  -3.844  0.00  0.00    -0.506 OA
ATOM     26  H   LIG    1       -3.436   0.149  -3.603  0.00  0.00    +0.292 HD
ENDBRANCH  16  25
BRANCH  19  27
ATOM     27  C   LIG    1       -3.059   0.883   0.678  0.00  0.00    +0.190 C 
ATOM     28  O   LIG    1       -3.601  -0.203   0.452  0.00  0.00    -0.292 OA
BRANCH  27  29
ATOM     29  C   LIG    1       -3.244   1.610   2.028  0.00  0.00    +0.233 C 
BRANCH  29  30
ATOM     30  O   LIG    1       -4.022   0.829   2.918  0.00  0.00    -0.387 OA
ATOM     31  H   LIG    1       -4.211   1.353   3.700  0.00  0.00    +0.210 HD
ENDBRANCH  29  30
ENDBRANCH  27  29
ENDBRANCH  19  27
BRANCH  19  32
ATOM     32  O   LIG    1       -2.504   2.936  -0.413  0.00  0.00    -0.381 OA
ATOM     33  H   LIG    1       -2.037   3.360  -1.137  0.00  0.00    +0.211 HD
ENDBRANCH  19  32
BRANCH   1  34
ATOM     34  O   LIG    1        1.268  -0.096   0.113  0.00  0.00    -0.343 OA
BRANCH  34  35
ATOM     35  C   LIG    1        1.942   0.548   1.167  0.00  0.00    +0.250 C 
ATOM     36  O   LIG    1        3.335   0.424   1.004  0.00  0.00    -0.346 OA
ATOM     37  C   LIG    1        3.831  -0.924   1.078  0.00  0.00    +0.145 C 
ATOM     38  C   LIG    1        5.328  -0.917   0.735  0.00  0.00    +0.040 C 
ATOM     39  C   LIG    1        3.510  -1.573   2.451  0.00  0.00    +0.133 C 
ATOM     40  C   LIG    1        1.988  -1.456   2.697  0.00  0.00    -0.039 C 
ATOM     41  C   LIG    1        1.524   0.005   2.548  0.00  0.00    +0.048 C 
BRANCH  40  42
ATOM     42  N   LIG    1        1.647  -1.934   4.120  0.00  0.00    +0.382 N 
ATOM     43  H   LIG    1        0.653  -1.865   4.284  0.00  0.00    -0.090 HD
ATOM     44  H   LIG    1        1.933  -2.895   4.240  0.00  0.00    -0.090 HD
ATOM     45  H   LIG    1        2.132  -1.363   4.798  0.00  0.00    -0.090 HD
ENDBRANCH  40  42
BRANCH  39  46
ATOM     46  O   LIG    1        4.248  -0.921   3.492  0.00  0.00    -0.371 OA
BRANCH  46  47
ATOM     47  C   LIG    1        5.322  -1.666   4.058  0.00  0.00    +0.195 C 
BRANCH  47  48
ATOM     48  C   LIG    1        6.011  -0.838   5.133  0.00  0.00    -0.022 A 
ATOM     49  C   LIG    1        6.299   0.512   4.905  0.00  0.00    +0.006 A 
ATOM     50  C   LIG    1        6.931   1.265   5.890  0.00  0.00    +0.000 A 
ATOM     51  C   LIG    1        7.279   0.667   7.099  0.00  0.00    +0.000 A 
ATOM     52  C   LIG    1        7.002  -0.678   7.331  0.00  0.00    +0.000 A 
ATOM     53  C   LIG    1        6.369  -1.433   6.347  0.00  0.00    +0.006 A 
ENDBRANCH  47  48
ENDBRANCH  46  47
ENDBRANCH  39  46
ENDBRANCH  34  35
ENDBRANCH   1  34
TORSDOF 13
