REMARK  Name = DB17309
REMARK                            x       y       z     vdW  Elec       q    Type
REMARK                         _______ _______ _______ _____ _____    ______ ____
ROOT
ATOM      1  C   LIG    1       -2.259  -2.220  -2.900  0.00  0.00    +0.030 C 
ATOM      2  C   LIG    1       -2.931  -2.941  -4.078  0.00  0.00    -0.019 C 
ATOM      3  C   LIG    1       -4.118  -2.462  -4.863  0.00  0.00    +0.264 C 
ATOM      4  O   LIG    1       -4.349  -3.508  -5.787  0.00  0.00    -0.457 OA
ATOM      5  C   LIG    1       -3.458  -4.505  -5.629  0.00  0.00    +0.336 C 
ATOM      6  O   LIG    1       -3.432  -5.532  -6.304  0.00  0.00    -0.245 OA
ATOM      7  C   LIG    1       -2.563  -4.143  -4.547  0.00  0.00    +0.039 C 
ATOM      8  C   LIG    1       -1.424  -4.978  -3.968  0.00  0.00    +0.043 C 
ATOM      9  C   LIG    1       -0.995  -4.369  -2.611  0.00  0.00    +0.015 C 
ATOM     10  C   LIG    1       -0.823  -2.808  -2.644  0.00  0.00    +0.009 C 
ATOM     11  C   LIG    1        0.188  -2.453  -3.777  0.00  0.00    +0.015 C 
ATOM     12  C   LIG    1       -0.373  -2.206  -1.260  0.00  0.00    +0.138 C 
ATOM     13  O   LIG    1        0.762  -2.787  -0.666  0.00  0.00    -0.358 OA
ATOM     14  C   LIG    1       -0.454  -3.066  -0.014  0.00  0.00    +0.186 C 
ATOM     15  C   LIG    1       -0.799  -2.380   1.329  0.00  0.00    +0.185 C 
ATOM     16  O   LIG    1       -1.927  -1.541   1.316  0.00  0.00    -0.359 OA
ATOM     17  C   LIG    1       -0.695  -0.884   1.498  0.00  0.00    +0.130 C 
ATOM     18  C   LIG    1       -0.146  -0.077   0.300  0.00  0.00    +0.193 C 
ATOM     19  C   LIG    1       -0.522  -0.668  -1.076  0.00  0.00    +0.156 C 
ATOM     20  O   LIG    1       -0.134   0.174  -2.121  0.00  0.00    -0.359 OA
ATOM     21  C   LIG    1       -1.524   0.084  -1.925  0.00  0.00    +0.157 C 
ATOM     22  C   LIG    1       -2.285  -0.679  -3.031  0.00  0.00    +0.043 C 
ENDROOT
BRANCH  17  23
ATOM     23  C   LIG    1       -0.409  -0.287   2.909  0.00  0.00    +0.020 C 
ATOM     24  C   LIG    1       -1.510  -0.604   3.942  0.00  0.00    +0.010 C 
ATOM     25  C   LIG    1        0.973  -0.699   3.456  0.00  0.00    +0.010 C 
ENDBRANCH  17  23
BRANCH  18  26
ATOM     26  O   LIG    1        1.275  -0.164   0.387  0.00  0.00    -0.344 OA
BRANCH  26  27
ATOM     27  C   LIG    1        1.975   1.053   0.161  0.00  0.00    +0.335 C 
BRANCH  27  28
ATOM     28  O   LIG    1        3.367   0.854   0.281  0.00  0.00    -0.260 OA
BRANCH  28  29
ATOM     29  P   LIG    1        4.474   2.218   0.201  0.00  0.00    +0.474 P 
ATOM     30  O   LIG    1        5.885   1.616   0.332  0.00  0.00    -0.227 OA
BRANCH  29  31
ATOM     31  O   LIG    1        4.101   3.132   1.384  0.00  0.00    -0.303 OA
ATOM     32  H   LIG    1        3.206   3.483   1.252  0.00  0.00    +0.222 HD
ENDBRANCH  29  31
BRANCH  29  33
ATOM     33  O   LIG    1        4.229   2.880  -1.168  0.00  0.00    -0.303 OA
ATOM     34  H   LIG    1        3.329   3.241  -1.196  0.00  0.00    +0.222 HD
ENDBRANCH  29  33
ENDBRANCH  28  29
ENDBRANCH  27  28
ENDBRANCH  26  27
ENDBRANCH  18  26
TORSDOF 7
