REMARK  Name = DB17032
REMARK                            x       y       z     vdW  Elec       q    Type
REMARK                         _______ _______ _______ _____ _____    ______ ____
ROOT
ATOM      1  C   LIG    1        1.392  -0.006  -0.013  0.00  0.00    -0.040 C 
ATOM      2  C   LIG    1        1.999  -1.388  -0.170  0.00  0.00    -0.058 A 
ATOM      3  C   LIG    1        1.638  -2.606   0.418  0.00  0.00    +0.002 A 
ATOM      4  C   LIG    1        2.368  -3.760   0.132  0.00  0.00    +0.000 A 
ATOM      5  C   LIG    1        3.466  -3.700  -0.727  0.00  0.00    +0.000 A 
ATOM      6  C   LIG    1        3.847  -2.482  -1.292  0.00  0.00    +0.004 A 
ATOM      7  C   LIG    1        3.124  -1.323  -1.000  0.00  0.00    -0.038 A 
ATOM      8  C   LIG    1        3.376   0.105  -1.455  0.00  0.00    +0.048 C 
ATOM      9  C   LIG    1        2.047   0.803  -1.140  0.00  0.00    +0.001 C 
ENDROOT
BRANCH   8  10
ATOM     10  C   LIG    1        4.608   0.759  -0.820  0.00  0.00    -0.039 A 
ATOM     11  C   LIG    1        4.840   0.675   0.559  0.00  0.00    +0.025 A 
ATOM     12  C   LIG    1        5.967   1.269   1.130  0.00  0.00    +0.060 A 
ATOM     13 CL   LIG    1        6.207   1.133   2.838  0.00  0.00    -0.082 Cl
ATOM     14  C   LIG    1        6.877   1.958   0.318  0.00  0.00    +0.059 A 
ATOM     15 CL   LIG    1        8.287   2.710   0.982  0.00  0.00    -0.082 Cl
ATOM     16  C   LIG    1        6.650   2.045  -1.056  0.00  0.00    +0.022 A 
ATOM     17  C   LIG    1        5.523   1.449  -1.622  0.00  0.00    +0.006 A 
ENDBRANCH   8  10
BRANCH   1  19
ATOM     18  C   LIG    1       -0.837   1.267   0.202  0.00  0.00    -0.100 C 
ATOM     19  N   LIG    1       -0.146  -0.086  -0.020  0.00  0.00    +0.382 N 
ATOM     20  H   LIG    1       -0.451  -0.468  -0.904  0.00  0.00    -0.085 HD
ATOM     21  H   LIG    1       -0.440  -0.718   0.712  0.00  0.00    -0.085 HD
ENDBRANCH   1  19
TORSDOF 2
