REMARK  Name = DB17678
REMARK                            x       y       z     vdW  Elec       q    Type
REMARK                         _______ _______ _______ _____ _____    ______ ____
ROOT
ATOM      1  C   LIG    1        1.193  -0.206  -0.199  0.00  0.00    +0.178 C 
ATOM      2  C   LIG    1        2.077  -1.481  -0.269  0.00  0.00    +0.177 C 
ATOM      3  C   LIG    1        3.552  -1.149   0.071  0.00  0.00    +0.179 C 
ATOM      4  C   LIG    1        3.664  -0.347   1.390  0.00  0.00    +0.202 C 
ATOM      5  C   LIG    1        2.688   0.853   1.388  0.00  0.00    +0.293 C 
ATOM      6  O   LIG    1        1.362   0.416   1.080  0.00  0.00    -0.340 OA
ENDROOT
BRANCH   2   7
ATOM      7  O   LIG    1        1.975  -2.114  -1.534  0.00  0.00    -0.386 OA
ATOM      8  H   LIG    1        2.408  -1.558  -2.186  0.00  0.00    +0.210 HD
ENDBRANCH   2   7
BRANCH   3   9
ATOM      9  O   LIG    1        4.380  -2.302   0.077  0.00  0.00    -0.386 OA
ATOM     10  H   LIG    1        4.065  -2.894   0.762  0.00  0.00    +0.210 HD
ENDBRANCH   3   9
BRANCH   4  11
ATOM     11  O   LIG    1        3.455  -1.150   2.540  0.00  0.00    -0.384 OA
ATOM     12  H   LIG    1        4.242  -1.682   2.682  0.00  0.00    +0.210 HD
ENDBRANCH   4  11
BRANCH   1  13
ATOM     13  C   LIG    1       -0.308  -0.527  -0.375  0.00  0.00    +0.190 C 
BRANCH  13  14
ATOM     14  O   LIG    1       -1.078   0.657  -0.441  0.00  0.00    -0.392 OA
ATOM     15  H   LIG    1       -2.003   0.416  -0.531  0.00  0.00    +0.210 HD
ENDBRANCH  13  14
ENDBRANCH   1  13
BRANCH   5  16
ATOM     16  O   LIG    1        3.036   1.860   0.449  0.00  0.00    -0.254 OA
BRANCH  16  17
ATOM     17  P   LIG    1        4.236   3.099   0.801  0.00  0.00    +0.475 P 
ATOM     18  O   LIG    1        4.240   4.025  -0.429  0.00  0.00    -0.227 OA
BRANCH  17  19
ATOM     19  O   LIG    1        5.574   2.362   0.995  0.00  0.00    -0.303 OA
ATOM     20  H   LIG    1        5.519   1.794   1.779  0.00  0.00    +0.222 HD
ENDBRANCH  17  19
BRANCH  17  21
ATOM     21  O   LIG    1        3.751   3.807   2.080  0.00  0.00    -0.303 OA
ATOM     22  H   LIG    1        3.768   3.182   2.821  0.00  0.00    +0.222 HD
ENDBRANCH  17  21
ENDBRANCH  16  17
ENDBRANCH   5  16
TORSDOF 9
