REMARK  Name = DB17055
REMARK                            x       y       z     vdW  Elec       q    Type
REMARK                         _______ _______ _______ _____ _____    ______ ____
ROOT
ATOM      1  C   LIG    1        1.418   0.030   0.072  0.00  0.00    +0.067 A 
ATOM      2  C   LIG    1        2.095  -0.652  -0.942  0.00  0.00    +0.051 A 
ATOM      3  C   LIG    1        3.497  -0.655  -1.017  0.00  0.00    +0.042 A 
ATOM      4  C   LIG    1        4.235   0.078  -0.051  0.00  0.00    +0.057 A 
ATOM      5  C   LIG    1        3.538   0.773   0.952  0.00  0.00    +0.017 A 
ATOM      6  C   LIG    1        2.149   0.750   1.017  0.00  0.00    +0.028 A 
ENDROOT
BRANCH   1  15
ATOM      7  C   LIG    1       -1.363  -4.891  -0.350  0.00  0.00    +0.011 C 
ATOM      8  C   LIG    1       -1.577  -3.489   0.260  0.00  0.00    -0.022 C 
ATOM      9  C   LIG    1       -2.961  -2.966  -0.250  0.00  0.00    +0.086 C 
ATOM     10  C   LIG    1       -3.283  -1.501   0.119  0.00  0.00    +0.167 C 
ATOM     11  O   LIG    1       -4.418  -1.129   0.410  0.00  0.00    -0.292 OA
ATOM     12  C   LIG    1       -2.109  -0.629   0.150  0.00  0.00    +0.070 A 
ATOM     13  C   LIG    1       -1.973   0.754   0.388  0.00  0.00    +0.176 A 
ATOM     14  N   LIG    1       -0.699   1.096   0.391  0.00  0.00    -0.161 NA
ATOM     15  N   LIG    1        0.007  -0.019   0.135  0.00  0.00    -0.235 N 
ATOM     16  C   LIG    1       -0.821  -1.103  -0.049  0.00  0.00    +0.056 A 
ATOM     17  C   LIG    1       -0.424  -2.564  -0.249  0.00  0.00    +0.063 C 
ATOM     18  C   LIG    1       -1.567  -3.520   1.811  0.00  0.00    +0.011 C 
BRANCH  13  19
ATOM     19  C   LIG    1       -3.045   1.801   0.664  0.00  0.00    +0.437 C 
ATOM     20  F   LIG    1       -2.580   3.047   0.546  0.00  0.00    -0.164 F 
ATOM     21  F   LIG    1       -3.527   1.668   1.899  0.00  0.00    -0.164 F 
ATOM     22  F   LIG    1       -4.064   1.685  -0.187  0.00  0.00    -0.164 F 
ENDBRANCH  13  19
ENDBRANCH   1  15
BRANCH   4  23
ATOM     23  C   LIG    1        5.752   0.125  -0.048  0.00  0.00    +0.243 C 
ATOM     24  O   LIG    1        6.434  -0.862  -0.318  0.00  0.00    -0.270 OA
ATOM     25  N   LIG    1        6.311   1.302   0.252  0.00  0.00    -0.325 N 
ATOM     26  H   LIG    1        7.316   1.396   0.264  0.00  0.00    +0.145 HD
ATOM     27  H   LIG    1        5.734   2.105   0.453  0.00  0.00    +0.145 HD
ENDBRANCH   4  23
BRANCH   3  28
ATOM     28  N   LIG    1        4.161  -1.363  -2.046  0.00  0.00    -0.340 N 
ATOM     29  H   LIG    1        5.146  -1.515  -1.881  0.00  0.00    +0.146 HD
BRANCH  28  30
ATOM     30  C   LIG    1        3.508  -2.365  -2.891  0.00  0.00    +0.071 C 
ATOM     31  C   LIG    1        3.277  -3.661  -2.080  0.00  0.00    +0.025 C 
ATOM     32  C   LIG    1        2.654  -4.767  -2.955  0.00  0.00    +0.033 C 
ATOM     33  C   LIG    1        3.468  -5.032  -4.244  0.00  0.00    +0.115 C 
ATOM     34  C   LIG    1        3.808  -3.737  -5.017  0.00  0.00    +0.033 C 
ATOM     35  C   LIG    1        4.410  -2.644  -4.111  0.00  0.00    +0.025 C 
BRANCH  33  36
ATOM     36  O   LIG    1        2.790  -5.947  -5.080  0.00  0.00    -0.392 OA
ATOM     37  H   LIG    1        3.329  -6.737  -5.170  0.00  0.00    +0.210 HD
ENDBRANCH  33  36
ENDBRANCH  28  30
ENDBRANCH   3  28
TORSDOF 6
