REMARK  Name = DB17690
REMARK                            x       y       z     vdW  Elec       q    Type
REMARK                         _______ _______ _______ _____ _____    ______ ____
ROOT
ATOM      1  C   LIG    1        1.521  -0.026   0.309  0.00  0.00    +0.188 C 
ENDROOT
BRANCH   1   2
ATOM      2  C   LIG    1       -0.011   0.075   0.050  0.00  0.00    +0.215 C 
BRANCH   2   3
ATOM      3  C   LIG    1       -0.401  -0.617  -1.269  0.00  0.00    +0.257 C 
ATOM      4  O   LIG    1       -0.810   0.002  -2.250  0.00  0.00    -0.298 OA
ENDBRANCH   2   3
BRANCH   2   5
ATOM      5  O   LIG    1       -0.420   1.450   0.092  0.00  0.00    -0.336 OA
BRANCH   5   6
ATOM      6  C   LIG    1       -1.736   1.709   0.516  0.00  0.00    +0.282 C 
ATOM      7  C   LIG    1       -1.794   3.101   1.181  0.00  0.00    +0.201 C 
ATOM      8  C   LIG    1       -1.615   4.227   0.136  0.00  0.00    +0.179 C 
ATOM      9  C   LIG    1       -2.613   4.045  -1.025  0.00  0.00    +0.174 C 
ATOM     10  C   LIG    1       -2.487   2.607  -1.580  0.00  0.00    +0.149 C 
ATOM     11  C   LIG    1       -3.463   2.296  -2.728  0.00  0.00    +0.041 C 
ATOM     12  O   LIG    1       -2.658   1.623  -0.547  0.00  0.00    -0.343 OA
BRANCH   7  13
ATOM     13  O   LIG    1       -0.893   3.207   2.268  0.00  0.00    -0.384 OA
ATOM     14  H   LIG    1       -1.133   2.558   2.933  0.00  0.00    +0.210 HD
ENDBRANCH   7  13
BRANCH   8  15
ATOM     15  O   LIG    1       -1.699   5.523   0.706  0.00  0.00    -0.386 OA
ATOM     16  H   LIG    1       -2.579   5.634   1.074  0.00  0.00    +0.210 HD
ENDBRANCH   8  15
BRANCH   9  17
ATOM     17  O   LIG    1       -3.947   4.355  -0.649  0.00  0.00    -0.387 OA
ATOM     18  H   LIG    1       -4.484   4.405  -1.443  0.00  0.00    +0.210 HD
ENDBRANCH   9  17
ENDBRANCH   5   6
ENDBRANCH   2   5
ENDBRANCH   1   2
BRANCH   1  19
ATOM     19  C   LIG    1        2.006   0.482   1.704  0.00  0.00    +0.177 C 
BRANCH  19  20
ATOM     20  O   LIG    1        1.874   1.889   1.816  0.00  0.00    -0.386 OA
ATOM     21  H   LIG    1        2.150   2.151   2.698  0.00  0.00    +0.210 HD
ENDBRANCH  19  20
BRANCH  19  22
ATOM     22  C   LIG    1        1.389  -0.247   2.936  0.00  0.00    +0.171 C 
BRANCH  22  23
ATOM     23  O   LIG    1        0.046   0.137   3.186  0.00  0.00    -0.387 OA
ATOM     24  H   LIG    1       -0.422   0.167   2.349  0.00  0.00    +0.210 HD
ENDBRANCH  22  23
BRANCH  22  25
ATOM     25  C   LIG    1        2.215  -0.141   4.241  0.00  0.00    +0.189 C 
BRANCH  25  26
ATOM     26  O   LIG    1        2.370   1.193   4.688  0.00  0.00    -0.392 OA
ATOM     27  H   LIG    1        2.866   1.185   5.510  0.00  0.00    +0.210 HD
ENDBRANCH  25  26
ENDBRANCH  22  25
ENDBRANCH  19  22
ENDBRANCH   1  19
BRANCH   1  28
ATOM     28  O   LIG    1        2.210   0.662  -0.746  0.00  0.00    -0.340 OA
BRANCH  28  29
ATOM     29  C   LIG    1        3.520   0.252  -1.042  0.00  0.00    +0.282 C 
ATOM     30  C   LIG    1        4.183   1.315  -1.939  0.00  0.00    +0.201 C 
ATOM     31  C   LIG    1        3.578   1.298  -3.361  0.00  0.00    +0.179 C 
ATOM     32  C   LIG    1        3.602  -0.130  -3.942  0.00  0.00    +0.177 C 
ATOM     33  C   LIG    1        2.925  -1.096  -2.941  0.00  0.00    +0.178 C 
ATOM     34  O   LIG    1        3.551  -1.020  -1.650  0.00  0.00    -0.341 OA
BRANCH  30  35
ATOM     35  O   LIG    1        4.156   2.598  -1.339  0.00  0.00    -0.384 OA
ATOM     36  H   LIG    1        4.369   3.250  -2.011  0.00  0.00    +0.210 HD
ENDBRANCH  30  35
BRANCH  31  37
ATOM     37  O   LIG    1        4.195   2.238  -4.227  0.00  0.00    -0.386 OA
ATOM     38  H   LIG    1        3.543   2.897  -4.476  0.00  0.00    +0.210 HD
ENDBRANCH  31  37
BRANCH  32  39
ATOM     39  O   LIG    1        4.912  -0.554  -4.289  0.00  0.00    -0.386 OA
ATOM     40  H   LIG    1        5.253   0.039  -4.963  0.00  0.00    +0.210 HD
ENDBRANCH  32  39
BRANCH  33  41
ATOM     41  C   LIG    1        2.907  -2.564  -3.414  0.00  0.00    +0.190 C 
BRANCH  41  42
ATOM     42  O   LIG    1        2.066  -3.346  -2.590  0.00  0.00    -0.392 OA
ATOM     43  H   LIG    1        2.082  -4.251  -2.909  0.00  0.00    +0.210 HD
ENDBRANCH  41  42
ENDBRANCH  33  41
ENDBRANCH  28  29
ENDBRANCH   1  28
TORSDOF 20
