REMARK  Name = DB17693
REMARK                            x       y       z     vdW  Elec       q    Type
REMARK                         _______ _______ _______ _____ _____    ______ ____
ROOT
ATOM      1  C   LIG    1       -1.054   2.970   0.930  0.00  0.00    +0.086 C 
ATOM      2  C   LIG    1       -1.153   1.490   0.646  0.00  0.00    +0.109 A 
ATOM      3  C   LIG    1       -0.202   0.488   0.457  0.00  0.00    +0.026 A 
ATOM      4  C   LIG    1       -0.959  -0.706   0.220  0.00  0.00    +0.027 A 
ATOM      5  C   LIG    1       -0.649  -2.048  -0.042  0.00  0.00    +0.023 A 
ATOM      6  C   LIG    1       -1.691  -2.967  -0.231  0.00  0.00    +0.022 A 
ATOM      7  C   LIG    1       -1.443  -4.402  -0.514  0.00  0.00    -0.033 A 
ATOM      8  C   LIG    1       -0.004  -4.895  -0.602  0.00  0.00    +0.045 C 
ATOM      9  C   LIG    1       -2.482  -5.244  -0.690  0.00  0.00    +0.096 A 
ATOM     10  C   LIG    1       -3.874  -4.794  -0.611  0.00  0.00    +0.337 A 
ATOM     11  O   LIG    1       -4.883  -5.481  -0.755  0.00  0.00    -0.245 OA
ATOM     12  O   LIG    1       -4.079  -3.452  -0.348  0.00  0.00    -0.422 OA
ATOM     13  C   LIG    1       -3.036  -2.550  -0.156  0.00  0.00    +0.146 A 
ATOM     14  C   LIG    1       -3.385  -1.213   0.109  0.00  0.00    +0.035 A 
ATOM     15  C   LIG    1       -4.835  -0.753   0.197  0.00  0.00    +0.051 C 
ATOM     16  C   LIG    1       -2.314  -0.326   0.288  0.00  0.00    +0.142 A 
ATOM     17  O   LIG    1       -2.423   1.007   0.548  0.00  0.00    -0.459 OA
ENDROOT
BRANCH   3  18
ATOM     18  C   LIG    1        1.305   0.598   0.486  0.00  0.00    +0.199 C 
BRANCH  18  19
ATOM     19  O   LIG    1        1.796   0.417  -0.834  0.00  0.00    -0.377 OA
BRANCH  19  20
ATOM     20  C   LIG    1        3.216   0.429  -0.930  0.00  0.00    +0.141 C 
BRANCH  20  21
ATOM     21  C   LIG    1        3.667   0.234  -2.389  0.00  0.00    -0.058 C 
BRANCH  21  22
ATOM     22  N   LIG    1        3.046   1.295  -3.307  0.00  0.00    +0.380 N 
ATOM     23  H   LIG    1        2.038   1.238  -3.262  0.00  0.00    -0.090 HD
ATOM     24  H   LIG    1        3.331   2.218  -3.014  0.00  0.00    -0.090 HD
ATOM     25  H   LIG    1        3.340   1.148  -4.262  0.00  0.00    -0.090 HD
ENDBRANCH  21  22
ENDBRANCH  20  21
ENDBRANCH  19  20
ENDBRANCH  18  19
ENDBRANCH   3  18
TORSDOF 5
