REMARK  Name = DB17822
REMARK                            x       y       z     vdW  Elec       q    Type
REMARK                         _______ _______ _______ _____ _____    ______ ____
ROOT
ATOM      1  C4*   U A  1        1.514   0.072  -0.154  0.00  0.00    +0.177 C 
ATOM      2  C3*   U A  1        2.220  -1.289  -0.311  0.00  0.00    +0.178 C 
ATOM      3  C2*   U A  1        3.091  -1.383   0.944  0.00  0.00    +0.193 C 
ATOM      4  C1*   U A  1        3.505   0.082   1.057  0.00  0.00    +0.241 C 
ATOM      5  O4*   U A  1        2.347   0.798   0.753  0.00  0.00    -0.348 OA
ENDROOT
BRANCH   4   6
ATOM      6  N1    U A  1        4.061   0.529   2.322  0.00  0.00    -0.257 N 
ATOM      7  C2    U A  1        5.422   0.467   2.506  0.00  0.00    +0.310 C 
ATOM      8  O2    U A  1        6.239   0.022   1.699  0.00  0.00    -0.252 OA
ATOM      9  N3    U A  1        5.870   1.000   3.671  0.00  0.00    -0.240 N 
ATOM     10  H3    U A  1        6.871   0.955   3.786  0.00  0.00    +0.159 HD
ATOM     11  C4    U A  1        5.223   1.605   4.692  0.00  0.00    +0.222 C 
ATOM     12  O4    U A  1        5.810   2.066   5.669  0.00  0.00    -0.275 OA
ATOM     13  C5    U A  1        3.696   1.695   4.490  0.00  0.00    +0.115 C 
ATOM     14  C6    U A  1        3.186   0.604   3.514  0.00  0.00    +0.121 C 
ENDBRANCH   4   6
BRANCH   2  15
ATOM     15  O3*   U A  1        2.953  -1.374  -1.524  0.00  0.00    -0.386 OA
ATOM     16  H3*   U A  1        3.620  -0.684  -1.527  0.00  0.00    +0.210 HD
ENDBRANCH   2  15
BRANCH   3  17
ATOM     17  O2*   U A  1        4.210  -2.250   0.902  0.00  0.00    -0.385 OA
ATOM     18  H2*   U A  1        4.628  -2.257   1.766  0.00  0.00    +0.210 HD
ENDBRANCH   3  17
BRANCH   1  19
ATOM     19  C5*   U A  1        0.103  -0.026   0.461  0.00  0.00    +0.190 C 
BRANCH  19  20
ATOM     20  O5*   U A  1       -0.498   1.249   0.556  0.00  0.00    -0.392 OA
ATOM     21  H5*   U A  1       -1.377   1.148   0.928  0.00  0.00    +0.210 HD
ENDBRANCH  19  20
ENDBRANCH   1  19
TORSDOF 5
