REMARK  Name = DB17472
REMARK                            x       y       z     vdW  Elec       q    Type
REMARK                         _______ _______ _______ _____ _____    ______ ____
ROOT
ATOM      1  C   LIG    1       -2.705  -0.166  -0.103  0.00  0.00    -0.030 A 
ATOM      2  C   LIG    1       -2.031   1.014   0.218  0.00  0.00    +0.006 A 
ATOM      3  C   LIG    1       -0.641   1.023   0.291  0.00  0.00    +0.010 A 
ATOM      4  C   LIG    1        0.083  -0.150   0.057  0.00  0.00    +0.003 A 
ATOM      5  C   LIG    1       -0.596  -1.330  -0.263  0.00  0.00    +0.010 A 
ATOM      6  C   LIG    1       -1.986  -1.339  -0.338  0.00  0.00    +0.006 A 
ENDROOT
BRANCH   4   7
ATOM      7  C   LIG    1        1.577  -0.140   0.137  0.00  0.00    +0.107 A 
ATOM      8  C   LIG    1        2.454  -1.013   0.831  0.00  0.00    +0.103 A 
ATOM      9  C   LIG    1        3.734  -0.509   0.562  0.00  0.00    +0.128 A 
ATOM     10  N   LIG    1        3.541   0.551  -0.298  0.00  0.00    -0.238 N 
ATOM     11  N   LIG    1        2.241   0.785  -0.522  0.00  0.00    -0.168 NA
BRANCH   8  12
ATOM     12  C   LIG    1        2.085  -2.089   1.731  0.00  0.00    +0.247 C 
ATOM     13  O   LIG    1        0.990  -2.130   2.289  0.00  0.00    -0.270 OA
ATOM     14  N   LIG    1        3.021  -3.020   1.938  0.00  0.00    -0.325 N 
ATOM     15  H   LIG    1        3.896  -2.982   1.438  0.00  0.00    +0.145 HD
ATOM     16  H   LIG    1        2.842  -3.783   2.574  0.00  0.00    +0.145 HD
ENDBRANCH   8  12
BRANCH   9  17
ATOM     17  N   LIG    1        4.987  -0.875   0.984  0.00  0.00    -0.343 N 
ATOM     18  H   LIG    1        5.751  -0.215   0.992  0.00  0.00    +0.144 HD
ATOM     19  H   LIG    1        5.149  -1.754   1.454  0.00  0.00    +0.144 HD
ENDBRANCH   9  17
BRANCH  10  20
ATOM     20  C   LIG    1        4.552   1.468  -0.863  0.00  0.00    +0.210 C 
ATOM     21  C   LIG    1        4.251   1.806  -2.343  0.00  0.00    +0.042 C 
BRANCH  20  22
ATOM     22  C   LIG    1        4.704   2.726   0.029  0.00  0.00    +0.412 C 
ATOM     23  F   LIG    1        3.600   3.475   0.038  0.00  0.00    -0.168 F 
ATOM     24  F   LIG    1        5.698   3.500  -0.408  0.00  0.00    -0.168 F 
ATOM     25  F   LIG    1        4.984   2.409   1.294  0.00  0.00    -0.168 F 
ENDBRANCH  20  22
ENDBRANCH  10  20
ENDBRANCH   4   7
BRANCH   1  26
ATOM     26  C   LIG    1       -4.229  -0.178  -0.163  0.00  0.00    +0.139 C 
BRANCH  26  28
ATOM     27  C   LIG    1       -4.663   0.269  -2.584  0.00  0.00    +0.248 C 
ATOM     28  N   LIG    1       -4.795   0.580  -1.279  0.00  0.00    -0.307 N 
ATOM     29  H   LIG    1       -5.295   1.422  -1.036  0.00  0.00    +0.149 HD
ATOM     30  O   LIG    1       -4.079  -0.740  -2.982  0.00  0.00    -0.270 OA
BRANCH  27  37
ATOM     31  C   LIG    1       -5.943   0.800  -4.726  0.00  0.00    +0.132 A 
ATOM     32  C   LIG    1       -6.487   1.756  -5.605  0.00  0.00    +0.049 A 
ATOM     33  C   LIG    1       -6.388   3.118  -5.335  0.00  0.00    +0.042 A 
ATOM     34  C   LIG    1       -5.741   3.554  -4.185  0.00  0.00    +0.124 A 
ATOM     35  F   LIG    1       -5.642   4.877  -3.923  0.00  0.00    -0.205 F 
ATOM     36  C   LIG    1       -5.193   2.626  -3.304  0.00  0.00    +0.055 A 
ATOM     37  C   LIG    1       -5.287   1.246  -3.556  0.00  0.00    +0.081 A 
BRANCH  31  39
ATOM     38  C   LIG    1       -6.701  -1.045  -6.120  0.00  0.00    +0.277 C 
ATOM     39  O   LIG    1       -6.039  -0.564  -4.954  0.00  0.00    -0.494 OA
ENDBRANCH  31  39
ENDBRANCH  27  37
ENDBRANCH  26  28
ENDBRANCH   1  26
TORSDOF 9
