REMARK  Name = DB17270
REMARK                            x       y       z     vdW  Elec       q    Type
REMARK                         _______ _______ _______ _____ _____    ______ ____
ROOT
ATOM      1  C   LIG    1       -1.290   3.534   1.182  0.00  0.00    +0.280 C 
ATOM      2  C   LIG    1       -0.849   2.031   1.221  0.00  0.00    +0.263 C 
ATOM      3  O   LIG    1       -0.873   1.367   2.263  0.00  0.00    -0.271 OA
ATOM      4  N   LIG    1       -0.444   1.535   0.002  0.00  0.00    -0.260 N 
ATOM      5  C   LIG    1       -0.262   2.303  -1.194  0.00  0.00    +0.046 A 
ATOM      6  C   LIG    1        0.830   2.049  -2.044  0.00  0.00    +0.024 A 
ATOM      7  C   LIG    1        1.028   2.742  -3.232  0.00  0.00    +0.002 A 
ATOM      8  C   LIG    1        0.117   3.711  -3.621  0.00  0.00    +0.001 A 
ATOM      9  C   LIG    1       -0.996   3.963  -2.829  0.00  0.00    +0.012 A 
ATOM     10  C   LIG    1       -1.231   3.257  -1.634  0.00  0.00    +0.024 A 
ATOM     11  C   LIG    1       -2.481   3.574  -0.876  0.00  0.00    +0.095 C 
ATOM     12  N   LIG    1       -2.511   3.707   0.399  0.00  0.00    -0.249 NA
ENDROOT
BRANCH   1  16
ATOM     13  N   LIG    1       -2.125   4.482   4.616  0.00  0.00    -0.269 N 
ATOM     14  H   LIG    1       -1.330   5.104   4.600  0.00  0.00    +0.156 HD
ATOM     15  C   LIG    1       -2.340   3.760   3.498  0.00  0.00    +0.306 C 
ATOM     16  N   LIG    1       -1.467   4.113   2.532  0.00  0.00    -0.270 N 
ATOM     17  H   LIG    1       -1.114   5.055   2.615  0.00  0.00    +0.153 HD
ATOM     18  O   LIG    1       -3.192   2.880   3.361  0.00  0.00    -0.252 OA
BRANCH  13  23
ATOM     19  C   LIG    1       -4.685   3.885   7.304  0.00  0.00    +0.029 A 
ATOM     20  C   LIG    1       -4.029   4.513   8.366  0.00  0.00    +0.023 A 
ATOM     21  C   LIG    1       -2.785   5.111   8.175  0.00  0.00    +0.004 A 
ATOM     22  C   LIG    1       -2.182   5.083   6.919  0.00  0.00    +0.023 A 
ATOM     23  C   LIG    1       -2.813   4.451   5.843  0.00  0.00    +0.037 A 
ATOM     24  C   LIG    1       -4.074   3.861   6.041  0.00  0.00    +0.046 A 
BRANCH  19  26
ATOM     25  C   LIG    1       -6.729   2.681   6.508  0.00  0.00    +0.125 C 
ATOM     26  N   LIG    1       -5.939   3.305   7.560  0.00  0.00    -0.347 N 
ATOM     27  H   LIG    1       -6.379   3.469   8.454  0.00  0.00    +0.146 HD
ENDBRANCH  19  26
ENDBRANCH  13  23
ENDBRANCH   1  16
BRANCH  11  28
ATOM     28  C   LIG    1       -3.750   3.747  -1.634  0.00  0.00    +0.089 A 
ATOM     29  C   LIG    1       -4.782   4.579  -1.165  0.00  0.00    +0.030 A 
ATOM     30  C   LIG    1       -5.963   4.678  -1.905  0.00  0.00    +0.004 A 
ATOM     31  C   LIG    1       -6.099   3.949  -3.086  0.00  0.00    +0.020 A 
ATOM     32  C   LIG    1       -5.041   3.135  -3.489  0.00  0.00    +0.111 A 
ATOM     33  N   LIG    1       -3.887   3.024  -2.784  0.00  0.00    -0.253 NA
ENDBRANCH  11  28
BRANCH   4  34
ATOM     34  C   LIG    1       -0.077   0.091  -0.028  0.00  0.00    +0.188 C 
BRANCH  34  35
ATOM     35  C   LIG    1        1.351  -0.213   0.504  0.00  0.00    +0.160 C 
ATOM     36  O   LIG    1        2.013   0.653   1.082  0.00  0.00    -0.295 OA
BRANCH  35  37
ATOM     37  C   LIG    1        1.973  -1.601   0.169  0.00  0.00    +0.059 C 
ATOM     38  C   LIG    1        0.909  -2.729   0.213  0.00  0.00    +0.022 C 
ATOM     39  C   LIG    1        3.096  -1.938   1.186  0.00  0.00    +0.022 C 
BRANCH  37  40
ATOM     40  C   LIG    1        2.643  -1.537  -1.232  0.00  0.00    +0.246 C 
BRANCH  40  41
ATOM     41  O   LIG    1        1.704  -1.352  -2.291  0.00  0.00    -0.464 OA
BRANCH  41  42
ATOM     42  C   LIG    1        2.121  -1.158  -3.556  0.00  0.00    +0.304 C 
ATOM     43  O   LIG    1        3.289  -1.121  -3.944  0.00  0.00    -0.251 OA
ATOM     44  C   LIG    1        0.957  -0.966  -4.520  0.00  0.00    +0.136 C 
ENDBRANCH  41  42
ENDBRANCH  40  41
ENDBRANCH  37  40
ENDBRANCH  35  37
ENDBRANCH  34  35
ENDBRANCH   4  34
TORSDOF 10
