REMARK  Name = DB17108
REMARK                            x       y       z     vdW  Elec       q    Type
REMARK                         _______ _______ _______ _____ _____    ______ ____
ROOT
ATOM      1  N   LIG    1       -1.931   1.554  -0.348  0.00  0.00    -0.183 N 
ATOM      2  C   LIG    1       -0.590   1.540  -0.094  0.00  0.00    +0.253 C 
ATOM      3  O   LIG    1        0.100   2.549   0.076  0.00  0.00    -0.273 OA
ATOM      4  C   LIG    1       -0.009   0.101  -0.038  0.00  0.00    +0.191 C 
ATOM      5  C   LIG    1       -0.518  -0.751  -1.240  0.00  0.00    +0.027 C 
ATOM      6  C   LIG    1       -2.008  -0.531  -1.592  0.00  0.00    +0.023 C 
ATOM      7  C   LIG    1       -2.731   0.332  -0.538  0.00  0.00    +0.140 C 
ENDROOT
BRANCH   1   8
ATOM      8  O   LIG    1       -2.428   2.798  -0.759  0.00  0.00    -0.292 OA
ATOM      9  H   LIG    1       -2.831   3.146   0.040  0.00  0.00    +0.242 HD
ENDBRANCH   1   8
BRANCH   4  10
ATOM     10  P   LIG    1        1.871   0.006   0.094  0.00  0.00    +0.340 P 
ATOM     11  O   LIG    1        2.492   0.414  -1.224  0.00  0.00    -0.258 OA
BRANCH  10  12
ATOM     12  O   LIG    1        1.984  -1.700   0.224  0.00  0.00    -0.324 OA
ATOM     13  H   LIG    1        1.907  -2.182   1.069  0.00  0.00    +0.220 HD
ENDBRANCH  10  12
BRANCH  10  14
ATOM     14  O   LIG    1        2.305   0.590   1.420  0.00  0.00    -0.324 OA
ATOM     15  H   LIG    1        1.783   0.194   2.135  0.00  0.00    +0.220 HD
ENDBRANCH  10  14
ENDBRANCH   4  10
TORSDOF 4
