REMARK  Name = DB17028
REMARK                            x       y       z     vdW  Elec       q    Type
REMARK                         _______ _______ _______ _____ _____    ______ ____
ROOT
ATOM      1  C   LIG    1       -0.409  -0.422  -0.782  0.00  0.00    +0.176 C 
ENDROOT
BRANCH   1   2
ATOM      2  O   LIG    1       -0.529   0.984  -0.584  0.00  0.00    -0.366 OA
BRANCH   2   3
ATOM      3  C   LIG    1       -1.736   1.420   0.049  0.00  0.00    +0.178 C 
BRANCH   3   8
ATOM      4  F   LIG    1       -1.788  -0.149   5.496  0.00  0.00    -0.205 F 
ATOM      5  C   LIG    1       -1.776   0.234   4.199  0.00  0.00    +0.123 A 
ATOM      6  C   LIG    1       -0.612   0.764   3.646  0.00  0.00    +0.039 A 
ATOM      7  C   LIG    1       -0.600   1.158   2.311  0.00  0.00    +0.009 A 
ATOM      8  C   LIG    1       -1.753   1.025   1.529  0.00  0.00    -0.014 A 
ATOM      9  C   LIG    1       -2.914   0.484   2.090  0.00  0.00    +0.009 A 
ATOM     10  C   LIG    1       -2.926   0.093   3.426  0.00  0.00    +0.039 A 
ENDBRANCH   3   8
BRANCH   3  11
ATOM     11  C   LIG    1       -1.900   2.926  -0.150  0.00  0.00    -0.014 A 
ATOM     12  C   LIG    1       -0.804   3.786  -0.013  0.00  0.00    +0.009 A 
ATOM     13  C   LIG    1       -0.962   5.155  -0.210  0.00  0.00    +0.039 A 
ATOM     14  C   LIG    1       -2.213   5.664  -0.550  0.00  0.00    +0.123 A 
ATOM     15  F   LIG    1       -2.367   6.994  -0.741  0.00  0.00    -0.205 F 
ATOM     16  C   LIG    1       -3.308   4.815  -0.697  0.00  0.00    +0.039 A 
ATOM     17  C   LIG    1       -3.150   3.446  -0.500  0.00  0.00    +0.009 A 
ENDBRANCH   3  11
ENDBRANCH   2   3
ENDBRANCH   1   2
BRANCH   1  18
ATOM     18  C   LIG    1        1.062  -0.741  -1.124  0.00  0.00    +0.112 C 
BRANCH  18  19
ATOM     19  N   LIG    1        1.476  -2.089  -0.712  0.00  0.00    -0.304 NA
ATOM     20  C   LIG    1        1.574  -2.312   0.741  0.00  0.00    +0.066 C 
ATOM     21  C   LIG    1        2.764  -1.555   1.380  0.00  0.00    -0.063 C 
ATOM     22  N   LIG    1        4.070  -2.027   0.701  0.00  0.00    +0.384 N 
ATOM     23  H   LIG    1        4.161  -3.020   0.868  0.00  0.00    -0.081 HD
ATOM     24  C   LIG    1        3.970  -1.801  -0.827  0.00  0.00    -0.063 C 
ATOM     25  C   LIG    1        2.716  -2.539  -1.360  0.00  0.00    +0.066 C 
BRANCH  22  26
ATOM     26  C   LIG    1        5.293  -1.305   1.308  0.00  0.00    -0.051 C 
BRANCH  26  27
ATOM     27  C   LIG    1        6.614  -1.909   0.872  0.00  0.00    -0.045 C 
ATOM     28  C   LIG    1        7.528  -1.277   0.110  0.00  0.00    +0.002 C 
BRANCH  28  29
ATOM     29  C   LIG    1        8.832  -1.814  -0.334  0.00  0.00    -0.025 A 
ATOM     30  C   LIG    1        9.355  -3.019   0.158  0.00  0.00    +0.008 A 
ATOM     31  C   LIG    1       10.585  -3.489  -0.295  0.00  0.00    +0.001 A 
ATOM     32  C   LIG    1       11.298  -2.759  -1.242  0.00  0.00    +0.000 A 
ATOM     33  C   LIG    1       10.791  -1.562  -1.740  0.00  0.00    +0.001 A 
ATOM     34  C   LIG    1        9.561  -1.092  -1.286  0.00  0.00    +0.008 A 
ENDBRANCH  28  29
ENDBRANCH  26  27
ENDBRANCH  22  26
ENDBRANCH  18  19
ENDBRANCH   1  18
TORSDOF 9
