REMARK  Name = DB17578
REMARK                            x       y       z     vdW  Elec       q    Type
REMARK                         _______ _______ _______ _____ _____    ______ ____
ROOT
ATOM      1  C   LIG    1        2.486  -1.288   0.020  0.00  0.00    +0.057 A 
ATOM      2  C   LIG    1        3.912  -1.233   0.022  0.00  0.00    +0.008 A 
ATOM      3  C   LIG    1        4.609   0.013   0.029  0.00  0.00    +0.010 A 
ATOM      4  C   LIG    1        5.996   0.065   0.032  0.00  0.00    +0.001 A 
ATOM      5  C   LIG    1        6.738  -1.103   0.025  0.00  0.00    +0.001 A 
ATOM      6  C   LIG    1        6.104  -2.339   0.018  0.00  0.00    +0.012 A 
ATOM      7  C   LIG    1        4.672  -2.451   0.016  0.00  0.00    +0.026 A 
ATOM      8  C   LIG    1        3.971  -3.715   0.008  0.00  0.00    +0.132 A 
ATOM      9  C   LIG    1        2.559  -3.732   0.007  0.00  0.00    +0.030 A 
ATOM     10  C   LIG    1        1.858  -2.531   0.016  0.00  0.00    +0.037 A 
ENDROOT
BRANCH   9  11
ATOM     11  C   LIG    1        1.735  -4.988  -0.012  0.00  0.00    +0.035 A 
ATOM     12  C   LIG    1        1.336  -5.591  -1.250  0.00  0.00    -0.007 A 
ATOM     13  C   LIG    1        1.699  -5.053  -2.519  0.00  0.00    +0.009 A 
ATOM     14  C   LIG    1        1.293  -5.668  -3.700  0.00  0.00    +0.001 A 
ATOM     15  C   LIG    1        0.523  -6.823  -3.666  0.00  0.00    +0.001 A 
ATOM     16  C   LIG    1        0.145  -7.382  -2.449  0.00  0.00    +0.008 A 
ATOM     17  C   LIG    1        0.541  -6.782  -1.228  0.00  0.00    -0.017 A 
ATOM     18  C   LIG    1        0.163  -7.338   0.015  0.00  0.00    +0.012 A 
ATOM     19  C   LIG    1        0.557  -6.737   1.202  0.00  0.00    +0.046 A 
ATOM     20  C   LIG    1        1.330  -5.582   1.194  0.00  0.00    +0.125 A 
BRANCH  20  21
ATOM     21  O   LIG    1        1.687  -5.034   2.401  0.00  0.00    -0.506 OA
ATOM     22  H   LIG    1        2.228  -4.247   2.303  0.00  0.00    +0.292 HD
ENDBRANCH  20  21
ENDBRANCH   9  11
BRANCH   1  23
ATOM     23  N   LIG    1        1.725  -0.102   0.017  0.00  0.00    -0.216 N 
ATOM     24  H   LIG    1        2.227   0.773   0.014  0.00  0.00    +0.174 HD
BRANCH  23  25
ATOM     25  S   LIG    1       -0.050  -0.035   0.015  0.00  0.00    +0.072 S 
ATOM     26  O   LIG    1       -0.499  -0.631  -1.250  0.00  0.00    -0.150 OA
ATOM     27  O   LIG    1       -0.499  -0.588   1.298  0.00  0.00    -0.150 OA
BRANCH  25  31
ATOM     28  C   LIG    1       -1.030   4.439  -0.066  0.00  0.00    +0.120 A 
ATOM     29  C   LIG    1       -0.877   3.725  -1.265  0.00  0.00    +0.047 A 
ATOM     30  C   LIG    1       -0.582   2.365  -1.238  0.00  0.00    +0.032 A 
ATOM     31  C   LIG    1       -0.442   1.709  -0.016  0.00  0.00    +0.109 A 
ATOM     32  C   LIG    1       -0.585   2.411   1.181  0.00  0.00    +0.032 A 
ATOM     33  C   LIG    1       -0.879   3.771   1.151  0.00  0.00    +0.047 A 
BRANCH  28  35
ATOM     34  C   LIG    1       -1.501   6.523  -1.203  0.00  0.00    +0.277 C 
ATOM     35  O   LIG    1       -1.325   5.788   0.004  0.00  0.00    -0.495 OA
ENDBRANCH  28  35
ENDBRANCH  25  31
ENDBRANCH  23  25
ENDBRANCH   1  23
BRANCH   8  36
ATOM     36  O   LIG    1        4.620  -4.824   0.002  0.00  0.00    -0.506 OA
ATOM     37  H   LIG    1        4.157  -5.638  -0.003  0.00  0.00    +0.292 HD
ENDBRANCH   8  36
TORSDOF 7
