REMARK  Name = DB17263
REMARK                            x       y       z     vdW  Elec       q    Type
REMARK                         _______ _______ _______ _____ _____    ______ ____
ROOT
ATOM      1  C   LIG    1        1.719   0.108  -0.449  0.00  0.00    +0.139 A 
ATOM      2  O   LIG    1        2.273   1.322  -0.193  0.00  0.00    -0.454 OA
ATOM      3  C   LIG    1        3.649   1.435  -0.097  0.00  0.00    +0.150 A 
ATOM      4  C   LIG    1        4.154   2.726   0.121  0.00  0.00    +0.041 A 
ATOM      5  C   LIG    1        5.542   2.901   0.204  0.00  0.00    +0.127 A 
ATOM      6  C   LIG    1        6.393   1.808   0.085  0.00  0.00    +0.092 A 
ATOM      7  C   LIG    1        5.888   0.525  -0.119  0.00  0.00    +0.135 A 
ATOM      8  C   LIG    1        4.497   0.312  -0.215  0.00  0.00    +0.106 A 
ATOM      9  C   LIG    1        3.886  -1.051  -0.436  0.00  0.00    +0.197 A 
ATOM     10  O   LIG    1        4.543  -2.087  -0.528  0.00  0.00    -0.287 OA
ATOM     11  C   LIG    1        2.433  -1.034  -0.541  0.00  0.00    +0.098 A 
ENDROOT
BRANCH   1  14
ATOM     12  C   LIG    1       -1.973  -0.767  -0.091  0.00  0.00    +0.162 A 
ATOM     13  C   LIG    1       -0.570  -0.837  -0.016  0.00  0.00    +0.061 A 
ATOM     14  C   LIG    1        0.242   0.194  -0.509  0.00  0.00    +0.021 A 
ATOM     15  C   LIG    1       -0.373   1.304  -1.100  0.00  0.00    +0.015 A 
ATOM     16  C   LIG    1       -1.761   1.390  -1.181  0.00  0.00    +0.050 A 
ATOM     17  C   LIG    1       -2.557   0.362  -0.679  0.00  0.00    +0.158 A 
BRANCH  12  19
ATOM     18  C   LIG    1       -2.273  -2.922   0.980  0.00  0.00    +0.277 C 
ATOM     19  O   LIG    1       -2.822  -1.752   0.383  0.00  0.00    -0.491 OA
ENDBRANCH  12  19
BRANCH  17  20
ATOM     20  O   LIG    1       -3.921   0.473  -0.773  0.00  0.00    -0.503 OA
ATOM     21  H   LIG    1       -4.379  -0.284  -0.401  0.00  0.00    +0.292 HD
ENDBRANCH  17  20
ENDBRANCH   1  14
BRANCH   5  22
ATOM     22  O   LIG    1        6.099   4.139   0.402  0.00  0.00    -0.506 OA
ATOM     23  H   LIG    1        7.057   4.112   0.437  0.00  0.00    +0.292 HD
ENDBRANCH   5  22
BRANCH   7  24
ATOM     24  O   LIG    1        6.803  -0.493  -0.222  0.00  0.00    -0.506 OA
ATOM     25  H   LIG    1        7.710  -0.189  -0.138  0.00  0.00    +0.292 HD
ENDBRANCH   7  24
BRANCH   4  26
ATOM     26  C   LIG    1        3.196   3.910   0.282  0.00  0.00    +0.069 C 
BRANCH  26  27
ATOM     27  C   LIG    1        2.622   4.391  -1.043  0.00  0.00    -0.023 C 
ATOM     28  C   LIG    1        1.362   4.804  -1.299  0.00  0.00    -0.079 C 
ATOM     29  C   LIG    1        0.245   4.893  -0.266  0.00  0.00    +0.038 C 
ATOM     30  C   LIG    1        0.946   5.242  -2.693  0.00  0.00    +0.038 C 
ENDBRANCH  26  27
ENDBRANCH   4  26
TORSDOF 7
