REMARK  Name = DB17939
REMARK                            x       y       z     vdW  Elec       q    Type
REMARK                         _______ _______ _______ _____ _____    ______ ____
ROOT
ATOM      1  C   LIG    1       -2.078  -1.235   0.014  0.00  0.00    +0.124 A 
ATOM      2  C   LIG    1       -2.751  -0.015   0.048  0.00  0.00    +0.091 A 
ATOM      3  C   LIG    1       -2.066   1.199  -0.007  0.00  0.00    +0.124 A 
ATOM      4  C   LIG    1       -0.665   1.180  -0.100  0.00  0.00    +0.053 A 
ATOM      5  C   LIG    1        0.040  -0.031  -0.136  0.00  0.00    -0.018 A 
ATOM      6  C   LIG    1       -0.677  -1.230  -0.079  0.00  0.00    +0.053 A 
ENDROOT
BRANCH   1   8
ATOM      7  C   LIG    1       -2.220  -3.650   0.048  0.00  0.00    +0.277 C 
ATOM      8  O   LIG    1       -2.855  -2.376   0.075  0.00  0.00    -0.495 OA
ENDBRANCH   1   8
BRANCH   3   9
ATOM      9  O   LIG    1       -2.834   2.347   0.036  0.00  0.00    -0.495 OA
ATOM     10  C   LIG    1       -2.192   3.616  -0.017  0.00  0.00    +0.277 C 
ENDBRANCH   3   9
BRANCH   5  11
ATOM     11  C   LIG    1        1.514  -0.096  -0.244  0.00  0.00    +0.009 C 
ATOM     12  C   LIG    1        2.348   0.919  -0.558  0.00  0.00    +0.008 C 
BRANCH  12  13
ATOM     13  C   LIG    1        3.823   0.853  -0.665  0.00  0.00    -0.025 A 
ATOM     14  C   LIG    1        4.529  -0.358  -0.616  0.00  0.00    +0.011 A 
ATOM     15  C   LIG    1        5.918  -0.368  -0.717  0.00  0.00    +0.046 A 
ATOM     16  C   LIG    1        6.610   0.832  -0.867  0.00  0.00    +0.117 A 
ATOM     17  C   LIG    1        5.921   2.041  -0.918  0.00  0.00    +0.046 A 
ATOM     18  C   LIG    1        4.532   2.049  -0.817  0.00  0.00    +0.011 A 
BRANCH  16  19
ATOM     19  O   LIG    1        7.976   0.823  -0.966  0.00  0.00    -0.507 OA
ATOM     20  H   LIG    1        8.349  -0.060  -0.918  0.00  0.00    +0.292 HD
ENDBRANCH  16  19
ENDBRANCH  12  13
ENDBRANCH   5  11
TORSDOF 5
