REMARK  Name = DB17576
REMARK                            x       y       z     vdW  Elec       q    Type
REMARK                         _______ _______ _______ _____ _____    ______ ____
ROOT
ATOM      1  C   LIG    1       -2.216  -1.177   0.161  0.00  0.00    +0.025 A 
ATOM      2  C   LIG    1       -2.869   0.071   0.079  0.00  0.00    -0.033 A 
ATOM      3  C   LIG    1       -2.097   1.237  -0.014  0.00  0.00    +0.008 A 
ATOM      4  C   LIG    1       -0.701   1.193  -0.006  0.00  0.00    -0.038 A 
ATOM      5  C   LIG    1        0.073   2.505  -0.110  0.00  0.00    +0.044 C 
ATOM      6  C   LIG    1       -0.053  -0.050   0.095  0.00  0.00    +0.040 A 
ATOM      7  C   LIG    1       -0.817  -1.217   0.167  0.00  0.00    +0.025 A 
ENDROOT
BRANCH   6   8
ATOM      8  C   LIG    1        1.449  -0.171   0.117  0.00  0.00    +0.247 C 
ATOM      9  N   LIG    1        2.086   0.062   1.297  0.00  0.00    -0.297 N 
ATOM     10  C   LIG    1        3.543  -0.110   1.409  0.00  0.00    +0.108 C 
ATOM     11  C   LIG    1        3.783  -1.524   1.989  0.00  0.00    +0.027 C 
ATOM     12  C   LIG    1        3.012  -1.753   3.318  0.00  0.00    +0.022 C 
ATOM     13  C   LIG    1        1.532  -1.293   3.232  0.00  0.00    +0.027 C 
ATOM     14  C   LIG    1        1.397   0.111   2.599  0.00  0.00    +0.108 C 
ATOM     15  O   LIG    1        2.033  -0.464  -0.928  0.00  0.00    -0.270 OA
BRANCH  12  16
ATOM     16  C   LIG    1        3.156  -3.181   3.849  0.00  0.00    -0.044 A 
ATOM     17  C   LIG    1        3.785  -3.418   5.076  0.00  0.00    +0.005 A 
ATOM     18  C   LIG    1        3.916  -4.718   5.557  0.00  0.00    +0.019 A 
ATOM     19  C   LIG    1        3.419  -5.788   4.811  0.00  0.00    +0.052 A 
ATOM     20  C   LIG    1        2.790  -5.559   3.586  0.00  0.00    +0.019 A 
ATOM     21  C   LIG    1        2.659  -4.258   3.107  0.00  0.00    +0.005 A 
BRANCH  19  22
ATOM     22  C   LIG    1        3.558  -7.148   5.312  0.00  0.00    +0.099 C 
ATOM     23  N   LIG    1        3.668  -8.229   5.710  0.00  0.00    -0.191 NA
ENDBRANCH  19  22
ENDBRANCH  12  16
ENDBRANCH   6   8
BRANCH   1  29
ATOM     24  C   LIG    1       -5.355  -4.884  -0.739  0.00  0.00    +0.087 C 
ATOM     25  C   LIG    1       -4.259  -4.019  -0.163  0.00  0.00    +0.122 A 
ATOM     26  N   LIG    1       -3.461  -4.379   0.883  0.00  0.00    -0.262 N 
ATOM     27  H   LIG    1       -3.495  -5.249   1.395  0.00  0.00    +0.190 HD
ATOM     28  N   LIG    1       -2.598  -3.401   1.151  0.00  0.00    -0.152 NA
ATOM     29  C   LIG    1       -2.930  -2.493   0.251  0.00  0.00    +0.182 A 
ATOM     30  N   LIG    1       -3.921  -2.824  -0.572  0.00  0.00    -0.212 NA
ENDBRANCH   1  29
BRANCH   2  31
ATOM     31  C   LIG    1       -4.404   0.162   0.106  0.00  0.00    +0.020 C 
ATOM     32  C   LIG    1       -5.164  -0.293   1.375  0.00  0.00    +0.008 C 
ATOM     33  C   LIG    1       -5.238   1.176   1.803  0.00  0.00    +0.001 C 
ATOM     34  C   LIG    1       -5.170   1.495   0.309  0.00  0.00    +0.008 C 
ENDBRANCH   2  31
TORSDOF 5
