REMARK  Name = DB17235
REMARK                            x       y       z     vdW  Elec       q    Type
REMARK                         _______ _______ _______ _____ _____    ______ ____
ROOT
ATOM      1  C   LIG    1        1.569   0.075   0.472  0.00  0.00    +0.085 A 
ATOM      2  N   LIG    1        2.152   0.487  -0.681  0.00  0.00    -0.214 NA
ATOM      3  C   LIG    1        3.508   0.509  -0.733  0.00  0.00    +0.219 A 
ATOM      4  N   LIG    1        4.318   0.096   0.278  0.00  0.00    -0.214 NA
ATOM      5  C   LIG    1        3.753  -0.299   1.456  0.00  0.00    +0.078 A 
ATOM      6  C   LIG    1        4.587  -0.679   2.556  0.00  0.00    -0.035 A 
ATOM      7  C   LIG    1        4.000  -1.076   3.757  0.00  0.00    +0.042 A 
ATOM      8  C   LIG    1        2.619  -1.091   3.911  0.00  0.00    +0.124 A 
ATOM      9  F   LIG    1        2.081  -1.468   5.093  0.00  0.00    -0.205 F 
ATOM     10  C   LIG    1        1.784  -0.719   2.863  0.00  0.00    +0.050 A 
ATOM     11  C   LIG    1        2.331  -0.325   1.612  0.00  0.00    +0.029 A 
ENDROOT
BRANCH   1  15
ATOM     12  C   LIG    1       -2.698   0.050   0.349  0.00  0.00    +0.238 A 
ATOM     13  C   LIG    1       -2.028   1.230  -0.010  0.00  0.00    +0.110 A 
ATOM     14  C   LIG    1       -0.627   1.231   0.037  0.00  0.00    +0.041 A 
ATOM     15  C   LIG    1        0.079   0.087   0.431  0.00  0.00    +0.021 A 
ATOM     16  C   LIG    1       -0.674  -1.044   0.764  0.00  0.00    +0.124 A 
ATOM     17  N   LIG    1       -2.028  -1.076   0.732  0.00  0.00    -0.219 NA
BRANCH  12  19
ATOM     18  C   LIG    1       -4.780  -1.173   0.664  0.00  0.00    +0.279 C 
ATOM     19  O   LIG    1       -4.084   0.022   0.312  0.00  0.00    -0.478 OA
ENDBRANCH  12  19
BRANCH  13  20
ATOM     20  N   LIG    1       -2.770   2.357  -0.401  0.00  0.00    -0.216 N 
ATOM     21  H   LIG    1       -3.776   2.278  -0.411  0.00  0.00    +0.173 HD
BRANCH  20  22
ATOM     22  S   LIG    1       -2.043   3.893  -0.913  0.00  0.00    +0.040 S 
ATOM     23  O   LIG    1       -1.309   3.622  -2.153  0.00  0.00    -0.155 OA
ATOM     24  O   LIG    1       -1.347   4.444   0.255  0.00  0.00    -0.155 OA
ATOM     25  C   LIG    1       -3.557   4.949  -1.297  0.00  0.00    +0.218 C 
ENDBRANCH  20  22
ENDBRANCH  13  20
ENDBRANCH   1  15
BRANCH   3  26
ATOM     26  N   LIG    1        4.115   0.897  -1.934  0.00  0.00    -0.295 N 
ATOM     27  C   LIG    1        5.564   1.192  -1.997  0.00  0.00    +0.136 C 
ATOM     28  C   LIG    1        6.139   1.248  -3.427  0.00  0.00    +0.179 C 
ATOM     29  O   LIG    1        5.385   2.149  -4.220  0.00  0.00    -0.377 OA
ATOM     30  C   LIG    1        4.034   1.732  -4.330  0.00  0.00    +0.179 C 
ATOM     31  C   LIG    1        3.374   1.693  -2.937  0.00  0.00    +0.136 C 
ENDBRANCH   3  26
BRANCH   6  32
ATOM     32  C   LIG    1        6.114  -0.668   2.429  0.00  0.00    -0.041 C 
BRANCH  32  33
ATOM     33  N   LIG    1        6.725   0.681   1.981  0.00  0.00    +0.382 N 
ATOM     34  H   LIG    1        6.244   0.969   1.139  0.00  0.00    -0.081 HD
ATOM     35  C   LIG    1        6.502   1.782   3.042  0.00  0.00    -0.078 C 
ATOM     36  C   LIG    1        7.054   3.107   2.488  0.00  0.00    -0.012 C 
ATOM     37  C   LIG    1        8.564   3.021   2.131  0.00  0.00    +0.017 C 
ATOM     38  C   LIG    1        8.740   1.871   1.100  0.00  0.00    -0.012 C 
ATOM     39  C   LIG    1        8.219   0.522   1.627  0.00  0.00    -0.078 C 
BRANCH  37  40
ATOM     40  C   LIG    1        9.185   4.388   1.669  0.00  0.00    +0.063 C 
ATOM     41  C   LIG    1       10.689   4.267   1.331  0.00  0.00    +0.041 C 
ATOM     42  C   LIG    1        8.998   5.506   2.722  0.00  0.00    +0.041 C 
BRANCH  40  43
ATOM     43  O   LIG    1        8.535   4.825   0.488  0.00  0.00    -0.389 OA
ATOM     44  H   LIG    1        8.924   5.660   0.216  0.00  0.00    +0.210 HD
ENDBRANCH  40  43
ENDBRANCH  37  40
ENDBRANCH  32  33
ENDBRANCH   6  32
TORSDOF 9
