REMARK  Name = DB17117
REMARK                            x       y       z     vdW  Elec       q    Type
REMARK                         _______ _______ _______ _____ _____    ______ ____
ROOT
ATOM      1  C   LIG    1       -2.052   1.075  -0.187  0.00  0.00    +0.106 A 
ATOM      2  C   LIG    1       -0.658   1.173  -0.175  0.00  0.00    +0.041 A 
ATOM      3  C   LIG    1        0.146   0.035  -0.358  0.00  0.00    +0.040 A 
ATOM      4  C   LIG    1       -0.485  -1.205  -0.544  0.00  0.00    +0.013 A 
ATOM      5  C   LIG    1       -1.876  -1.304  -0.561  0.00  0.00    +0.003 A 
ATOM      6  C   LIG    1       -2.660  -0.166  -0.388  0.00  0.00    +0.028 A 
ENDROOT
BRANCH   3   7
ATOM      7  C   LIG    1        1.659   0.119  -0.351  0.00  0.00    +0.263 C 
ATOM      8  N   LIG    1        2.183   1.346  -0.553  0.00  0.00    -0.203 N 
ATOM      9  H   LIG    1        1.598   2.159  -0.678  0.00  0.00    +0.178 HD
ATOM     10  O   LIG    1        2.340  -0.899  -0.195  0.00  0.00    -0.268 OA
BRANCH   8  11
ATOM     11  N   LIG    1        3.513   1.573  -0.613  0.00  0.00    -0.184 NA
ATOM     12  C   LIG    1        3.884   2.783  -0.813  0.00  0.00    +0.067 C 
ATOM     13  C   LIG    1        2.940   3.983  -1.021  0.00  0.00    +0.068 C 
BRANCH  12  14
ATOM     14  C   LIG    1        5.325   3.090  -0.951  0.00  0.00    +0.040 A 
ATOM     15  C   LIG    1        5.756   3.881  -2.030  0.00  0.00    +0.033 A 
ATOM     16  C   LIG    1        7.103   4.191  -2.212  0.00  0.00    +0.042 A 
ATOM     17 CL   LIG    1        7.594   5.162  -3.552  0.00  0.00    -0.084 Cl
ATOM     18  C   LIG    1        8.053   3.713  -1.313  0.00  0.00    +0.023 A 
ATOM     19  C   LIG    1        7.653   2.929  -0.234  0.00  0.00    +0.047 A 
ATOM     20  C   LIG    1        6.304   2.617  -0.047  0.00  0.00    +0.126 A 
BRANCH  20  21
ATOM     21  O   LIG    1        5.981   1.857   1.052  0.00  0.00    -0.506 OA
ATOM     22  H   LIG    1        6.748   1.601   1.570  0.00  0.00    +0.292 HD
ENDBRANCH  20  21
ENDBRANCH  12  14
ENDBRANCH   8  11
ENDBRANCH   3   7
BRANCH   1  23
ATOM     23  S   LIG    1       -3.042   2.554   0.012  0.00  0.00    +0.061 S 
ATOM     24  O   LIG    1       -4.432   2.143   0.244  0.00  0.00    -0.153 OA
ATOM     25  O   LIG    1       -2.341   3.402   0.984  0.00  0.00    -0.153 OA
BRANCH  23  30
ATOM     26  C   LIG    1       -3.237   5.346  -5.284  0.00  0.00    +0.105 C 
ATOM     27  N   LIG    1       -3.563   4.766  -3.986  0.00  0.00    -0.303 NA
ATOM     28  C   LIG    1       -3.338   3.309  -4.008  0.00  0.00    +0.101 C 
ATOM     29  C   LIG    1       -3.753   2.709  -2.645  0.00  0.00    +0.125 C 
ATOM     30  N   LIG    1       -2.962   3.350  -1.567  0.00  0.00    -0.174 NA
ATOM     31  C   LIG    1       -3.160   4.819  -1.554  0.00  0.00    +0.125 C 
ATOM     32  C   LIG    1       -2.757   5.403  -2.929  0.00  0.00    +0.101 C 
ENDBRANCH  23  30
ENDBRANCH   1  23
TORSDOF 6
