REMARK  Name = DB17113
REMARK                            x       y       z     vdW  Elec       q    Type
REMARK                         _______ _______ _______ _____ _____    ______ ____
ROOT
ATOM      1  C   UNK A  0       -4.856   0.213   0.426  0.00  0.00    +0.031 A 
ATOM      2  C   UNK A  0       -3.899  -0.781   0.665  0.00  0.00    +0.024 A 
ATOM      3  C   UNK A  0       -2.555  -0.561   0.379  0.00  0.00    +0.015 A 
ATOM      4  C   UNK A  0       -2.129   0.664  -0.155  0.00  0.00    +0.037 A 
ATOM      5  C   UNK A  0       -3.086   1.657  -0.398  0.00  0.00    +0.015 A 
ATOM      6  C   UNK A  0       -4.429   1.435  -0.109  0.00  0.00    +0.024 A 
ENDROOT
BRANCH   1  19
ATOM      7  C   UNK A  0      -10.644  -2.254   4.709  0.00  0.00    +0.195 A 
ATOM      8  N   UNK A  0       -9.365  -2.747   4.627  0.00  0.00    -0.294 N 
ATOM      9  H   UNK A  0       -9.098  -3.497   5.245  0.00  0.00    +0.172 HD
ATOM     10  C   UNK A  0       -8.392  -2.315   3.776  0.00  0.00    +0.276 A 
ATOM     11  O   UNK A  0       -7.275  -2.829   3.804  0.00  0.00    -0.266 OA
ATOM     12  C   UNK A  0       -8.846  -1.226   2.898  0.00  0.00    +0.137 A 
ATOM     13  N   UNK A  0       -7.992  -0.664   1.939  0.00  0.00    -0.301 N 
ATOM     14  C   UNK A  0       -8.567   0.201   0.907  0.00  0.00    +0.109 C 
ATOM     15  C   UNK A  0       -9.677   1.109   1.514  0.00  0.00    +0.127 C 
ATOM     16  N   UNK A  0      -10.604   0.266   2.271  0.00  0.00    -0.326 N 
ATOM     17  H   UNK A  0      -11.507   0.672   2.463  0.00  0.00    +0.148 HD
ATOM     18  C   UNK A  0       -7.312   0.905   0.423  0.00  0.00    +0.130 C 
ATOM     19  N   UNK A  0       -6.213  -0.005   0.719  0.00  0.00    -0.312 N 
ATOM     20  C   UNK A  0       -6.808  -1.221   1.285  0.00  0.00    +0.214 C 
ATOM     21  C   UNK A  0      -10.131  -0.777   3.037  0.00  0.00    +0.149 A 
ATOM     22  N   UNK A  0      -11.024  -1.294   3.935  0.00  0.00    -0.199 NA
BRANCH   7  23
ATOM     23  N   UNK A  0      -11.525  -2.828   5.648  0.00  0.00    -0.329 N 
ATOM     24  H   UNK A  0      -11.140  -3.275   6.467  0.00  0.00    +0.145 HD
ATOM     25  H   UNK A  0      -12.398  -2.359   5.840  0.00  0.00    +0.145 HD
ENDBRANCH   7  23
ENDBRANCH   1  19
BRANCH   4  26
ATOM     26  C   UNK A  0       -0.672   0.927  -0.478  0.00  0.00    +0.245 C 
ATOM     27  N   GLU A  1        0.220   0.040   0.013  0.00  0.00    -0.298 N 
ATOM     28  H   GLU A  1       -0.128  -0.684   0.623  0.00  0.00    +0.150 HD
ATOM     29  O   UNK A  0       -0.340   1.915  -1.137  0.00  0.00    -0.270 OA
BRANCH  27  30
ATOM     30  CA  GLU A  1        1.686   0.043  -0.144  0.00  0.00    +0.182 C 
BRANCH  30  31
ATOM     31  C   GLU A  1        2.119  -0.106  -1.654  0.00  0.00    +0.325 C 
ATOM     32  OXT GLU A  1        2.705   0.896  -2.124  0.00  0.00    -0.249 OA
BRANCH  31  33
ATOM     33  O   GLU A  1        1.819  -1.186  -2.217  0.00  0.00    -0.479 OA
ATOM     34  H   GLU A  1        2.052  -1.327  -3.114  0.00  0.00    +0.295 HD
ENDBRANCH  31  33
ENDBRANCH  30  31
BRANCH  30  35
ATOM     35  CB  GLU A  1        2.281  -1.123   0.699  0.00  0.00    +0.045 C 
BRANCH  35  36
ATOM     36  CG  GLU A  1        2.070  -0.952   2.225  0.00  0.00    +0.123 C 
BRANCH  36  37
ATOM     37  CD  GLU A  1        2.645  -2.069   3.116  0.00  0.00    +0.305 C 
ATOM     38  OE2 GLU A  1        2.501  -1.919   4.349  0.00  0.00    -0.251 OA
BRANCH  37  39
ATOM     39  OE1 GLU A  1        3.211  -3.051   2.583  0.00  0.00    -0.481 OA
ATOM     40  HE1 GLU A  1        3.563  -3.735   3.118  0.00  0.00    +0.295 HD
ENDBRANCH  37  39
ENDBRANCH  36  37
ENDBRANCH  35  36
ENDBRANCH  30  35
ENDBRANCH  27  30
ENDBRANCH   4  26
TORSDOF 10
