REMARK  Name = DB17738
REMARK                            x       y       z     vdW  Elec       q    Type
REMARK                         _______ _______ _______ _____ _____    ______ ____
ROOT
ATOM      1  C4* LIG    1        1.476   0.058  -0.182  0.00  0.00    +0.177 C 
ATOM      2  C3* LIG    1        2.118  -1.338  -0.278  0.00  0.00    +0.178 C 
ATOM      3  C2* LIG    1        3.060  -1.384   0.926  0.00  0.00    +0.196 C 
ATOM      4  C1* LIG    1        3.532   0.067   0.919  0.00  0.00    +0.270 C 
ATOM      5  O4* LIG    1        2.404   0.820   0.591  0.00  0.00    -0.344 OA
ENDROOT
BRANCH   4   6
ATOM      6  N   LIG    1        4.090   0.534   2.174  0.00  0.00    -0.215 N 
ATOM      7  C   LIG    1        5.370   0.957   2.454  0.00  0.00    +0.168 A 
ATOM      8  N   LIG    1        6.428   1.035   1.595  0.00  0.00    -0.218 NA
ATOM      9  C   LIG    1        7.530   1.471   2.109  0.00  0.00    +0.201 A 
ATOM     10  N   LIG    1        7.620   1.830   3.445  0.00  0.00    -0.313 N 
ATOM     11  H   LIG    1        8.510   2.165   3.780  0.00  0.00    +0.170 HD
ATOM     12  C   LIG    1        6.627   1.790   4.396  0.00  0.00    +0.262 A 
ATOM     13  O   LIG    1        6.828   2.138   5.557  0.00  0.00    -0.267 OA
ATOM     14  C   LIG    1        5.390   1.295   3.800  0.00  0.00    +0.103 A 
ATOM     15  C   LIG    1        4.092   1.041   4.247  0.00  0.00    +0.150 A 
ATOM     16  N   LIG    1        3.319   0.585   3.283  0.00  0.00    -0.175 NA
ENDBRANCH   4   6
BRANCH   2  17
ATOM     17  O3* LIG    1        2.769  -1.537  -1.524  0.00  0.00    -0.386 OA
ATOM     18  H3* LIG    1        3.316  -2.324  -1.457  0.00  0.00    +0.210 HD
ENDBRANCH   2  17
BRANCH   3  19
ATOM     19  O2* LIG    1        4.160  -2.276   0.849  0.00  0.00    -0.385 OA
ATOM     20  H2* LIG    1        4.606  -2.284   1.699  0.00  0.00    +0.210 HD
ENDBRANCH   3  19
BRANCH   1  21
ATOM     21  C5* LIG    1        0.113   0.077   0.540  0.00  0.00    +0.190 C 
BRANCH  21  22
ATOM     22  O5* LIG    1       -0.442   1.377   0.543  0.00  0.00    -0.392 OA
ATOM     23  H5* LIG    1       -1.285   1.350   1.003  0.00  0.00    +0.210 HD
ENDBRANCH  21  22
ENDBRANCH   1  21
TORSDOF 5
