REMARK  Name = DB17046
REMARK                            x       y       z     vdW  Elec       q    Type
REMARK                         _______ _______ _______ _____ _____    ______ ____
ROOT
ATOM      1  C   LIG    1        1.348   0.042  -0.167  0.00  0.00    +0.163 A 
ATOM      2  N   LIG    1        2.016  -1.084  -0.562  0.00  0.00    -0.223 NA
ATOM      3  C   LIG    1        3.337  -1.081  -0.360  0.00  0.00    +0.124 A 
ATOM      4  C   LIG    1        4.318  -2.038  -0.640  0.00  0.00    +0.066 A 
ATOM      5  C   LIG    1        4.348  -3.321  -1.211  0.00  0.00    +0.017 A 
ATOM      6  C   LIG    1        5.594  -3.953  -1.306  0.00  0.00    +0.021 A 
ATOM      7  C   LIG    1        6.739  -3.297  -0.838  0.00  0.00    +0.114 A 
ATOM      8  N   LIG    1        6.744  -2.055  -0.279  0.00  0.00    -0.220 NA
ATOM      9  C   LIG    1        5.542  -1.483  -0.205  0.00  0.00    +0.230 A 
ATOM     10  O   LIG    1        5.351  -0.234   0.328  0.00  0.00    -0.432 OA
ATOM     11  C   LIG    1        4.002   0.021   0.235  0.00  0.00    +0.196 A 
ATOM     12  C   LIG    1        3.264   1.154   0.642  0.00  0.00    +0.169 A 
ATOM     13  N   LIG    1        1.920   1.140   0.409  0.00  0.00    -0.209 NA
ENDROOT
BRANCH   1  16
ATOM     14  C   LIG    1       -2.288   1.245  -0.264  0.00  0.00    +0.118 A 
ATOM     15  C   LIG    1       -0.906   1.213  -0.064  0.00  0.00    +0.057 A 
ATOM     16  C   LIG    1       -0.142   0.074  -0.385  0.00  0.00    +0.023 A 
ATOM     17  C   LIG    1       -0.830  -1.032  -0.919  0.00  0.00    +0.012 A 
ATOM     18  C   LIG    1       -2.209  -1.005  -1.121  0.00  0.00    +0.004 A 
ATOM     19  C   LIG    1       -2.939   0.134  -0.794  0.00  0.00    +0.045 A 
BRANCH  14  20
ATOM     20  O   LIG    1       -3.003   2.368   0.059  0.00  0.00    -0.507 OA
ATOM     21  H   LIG    1       -2.455   3.072   0.411  0.00  0.00    +0.292 HD
ENDBRANCH  14  20
ENDBRANCH   1  16
BRANCH  12  22
ATOM     22  N   LIG    1        3.828   2.318   1.181  0.00  0.00    -0.308 N 
ATOM     23  C   LIG    1        3.005   3.208   2.029  0.00  0.00    +0.134 C 
ATOM     24  C   LIG    1        3.615   4.600   2.283  0.00  0.00    +0.178 C 
ATOM     25  O   LIG    1        4.927   4.463   2.800  0.00  0.00    -0.377 OA
ATOM     26  C   LIG    1        5.775   3.805   1.875  0.00  0.00    +0.178 C 
ATOM     27  C   LIG    1        5.249   2.384   1.577  0.00  0.00    +0.134 C 
ENDBRANCH  12  22
TORSDOF 3
