REMARK  Name = DB17137
REMARK                            x       y       z     vdW  Elec       q    Type
REMARK                         _______ _______ _______ _____ _____    ______ ____
ROOT
ATOM      1  CA  LIG    1       -0.065   0.061  -0.029  0.00  0.00    +0.040 C 
ENDROOT
BRANCH   1   2
ATOM      2  N   LIG    1       -0.447  -0.877  -1.186  0.00  0.00    +0.387 N 
ATOM      3  H1  LIG    1       -0.165  -0.474  -2.068  0.00  0.00    -0.089 HD
ATOM      4  H2  LIG    1        0.017  -1.767  -1.074  0.00  0.00    -0.089 HD
ATOM      5  H3  LIG    1       -1.445  -1.032  -1.193  0.00  0.00    -0.089 HD
ENDBRANCH   1   2
BRANCH   1   6
ATOM      6  C   LIG    1       -0.814   1.410  -0.215  0.00  0.00    +0.290 C 
ATOM      7  OXT LIG    1       -0.960   2.105   0.815  0.00  0.00    -0.253 OA
BRANCH   6   8
ATOM      8  O   LIG    1       -1.214   1.759  -1.351  0.00  0.00    -0.482 OA
ATOM      9  H   LIG    1       -1.665   2.573  -1.460  0.00  0.00    +0.295 HD
ENDBRANCH   6   8
ENDBRANCH   1   6
BRANCH   1  10
ATOM     10  C   LIG    1        1.478   0.228  -0.024  0.00  0.00    +0.030 C 
BRANCH  10  11
ATOM     11  C   LIG    1        2.036   0.843   1.255  0.00  0.00    -0.048 A 
ATOM     12  C   LIG    1        2.141   0.065   2.411  0.00  0.00    +0.004 A 
ATOM     13  C   LIG    1        2.646   0.624   3.582  0.00  0.00    +0.014 A 
ATOM     14  C   LIG    1        3.046   1.959   3.594  0.00  0.00    +0.013 A 
ATOM     15  I   LIG    1        3.803   2.798   5.353  0.00  0.00    -0.044 I 
ATOM     16  C   LIG    1        2.944   2.739   2.444  0.00  0.00    +0.014 A 
ATOM     17  C   LIG    1        2.440   2.180   1.273  0.00  0.00    +0.004 A 
ENDBRANCH  10  11
ENDBRANCH   1  10
TORSDOF 5
