REMARK  Name = DB17568
REMARK                            x       y       z     vdW  Elec       q    Type
REMARK                         _______ _______ _______ _____ _____    ______ ____
ROOT
ATOM      1  C   LIG    1        0.199  -2.196   0.562  0.00  0.00    +0.045 C 
ATOM      2  C   LIG    1       -0.532  -0.897   0.237  0.00  0.00    -0.029 A 
ATOM      3  C   LIG    1        0.155   0.323   0.124  0.00  0.00    +0.044 A 
ATOM      4  C   LIG    1       -0.565   1.531  -0.166  0.00  0.00    +0.008 A 
ATOM      5  C   LIG    1        0.062   2.807  -0.259  0.00  0.00    +0.030 A 
ATOM      6  C   LIG    1       -0.706   3.928  -0.547  0.00  0.00    +0.113 A 
ATOM      7  N   LIG    1       -2.040   3.882  -0.744  0.00  0.00    -0.240 NA
ATOM      8  C   LIG    1       -2.676   2.689  -0.659  0.00  0.00    +0.131 A 
ATOM      9  C   LIG    1       -1.984   1.468  -0.366  0.00  0.00    +0.024 A 
ATOM     10  C   LIG    1       -2.631   0.207  -0.259  0.00  0.00    +0.012 A 
ATOM     11  C   LIG    1       -1.909  -0.941   0.041  0.00  0.00    +0.006 A 
ENDROOT
BRANCH   3  12
ATOM     12  N   LIG    1        1.544   0.338   0.332  0.00  0.00    -0.281 N 
ATOM     13  H   LIG    1        1.868   0.175   1.274  0.00  0.00    +0.155 HD
ATOM     14  C   LIG    1        2.455   0.446  -0.659  0.00  0.00    +0.251 C 
ATOM     15  O   LIG    1        2.176   0.608  -1.849  0.00  0.00    -0.270 OA
BRANCH  14  16
ATOM     16  C   LIG    1        3.827   0.375  -0.208  0.00  0.00    +0.070 A 
ATOM     17  C   LIG    1        4.938   1.076  -0.796  0.00  0.00    +0.095 A 
ATOM     18  N   LIG    1        4.876   1.969  -1.800  0.00  0.00    -0.234 NA
ATOM     19  C   LIG    1        6.053   2.523  -2.186  0.00  0.00    +0.224 A 
ATOM     20  N   LIG    1        7.281   2.279  -1.670  0.00  0.00    -0.220 NA
ATOM     21  C   LIG    1        7.351   1.383  -0.659  0.00  0.00    +0.134 A 
ATOM     22  C   LIG    1        6.189   0.749  -0.183  0.00  0.00    +0.078 A 
ATOM     23  S   LIG    1        5.993  -0.442   1.093  0.00  0.00    -0.091 S 
ATOM     24  C   LIG    1        4.278  -0.491   0.782  0.00  0.00    +0.061 A 
BRANCH  21  25
ATOM     25  N   LIG    1        8.608   1.121  -0.120  0.00  0.00    -0.342 N 
ATOM     26  H   LIG    1        9.414   1.602  -0.495  0.00  0.00    +0.144 HD
ATOM     27  H   LIG    1        8.698   0.454   0.632  0.00  0.00    +0.144 HD
ENDBRANCH  21  25
ENDBRANCH  14  16
ENDBRANCH   3  12
BRANCH   8  28
ATOM     28  N   LIG    1       -4.073   2.663  -0.856  0.00  0.00    -0.297 N 
ATOM     29  H   LIG    1       -4.457   1.737  -0.739  0.00  0.00    +0.154 HD
BRANCH  28  30
ATOM     30  C   LIG    1       -5.067   3.610  -1.180  0.00  0.00    +0.070 A 
ATOM     31  C   LIG    1       -6.399   3.166  -1.201  0.00  0.00    +0.163 A 
ATOM     32  F   LIG    1       -6.691   1.872  -0.918  0.00  0.00    -0.202 F 
ATOM     33  C   LIG    1       -7.439   4.048  -1.510  0.00  0.00    +0.078 A 
ATOM     34 CL   LIG    1       -9.078   3.501  -1.534  0.00  0.00    -0.081 Cl
ATOM     35  C   LIG    1       -7.158   5.382  -1.801  0.00  0.00    +0.023 A 
ATOM     36  C   LIG    1       -5.842   5.835  -1.785  0.00  0.00    +0.003 A 
ATOM     37  C   LIG    1       -4.803   4.957  -1.477  0.00  0.00    +0.026 A 
ENDBRANCH  28  30
ENDBRANCH   8  28
TORSDOF 5
