REMARK  Name = DB17298
REMARK                            x       y       z     vdW  Elec       q    Type
REMARK                         _______ _______ _______ _____ _____    ______ ____
ROOT
ATOM      1  C   LIG    1        1.606   0.171  -0.216  0.00  0.00    +0.021 A 
ATOM      2  C   LIG    1        2.341   0.923   0.721  0.00  0.00    +0.013 A 
ATOM      3  C   LIG    1        3.726   0.831   0.820  0.00  0.00    +0.030 A 
ATOM      4  C   LIG    1        4.431  -0.025  -0.020  0.00  0.00    +0.119 A 
ATOM      5  C   LIG    1        3.735  -0.775  -0.964  0.00  0.00    +0.059 A 
ATOM      6  C   LIG    1        2.338  -0.694  -1.077  0.00  0.00    +0.127 A 
ENDROOT
BRANCH   4   7
ATOM      7  S   LIG    1        6.220  -0.151   0.077  0.00  0.00    +0.110 S 
ATOM      8  O   LIG    1        6.650   0.669  -1.061  0.00  0.00    -0.142 OA
ATOM      9  O   LIG    1        6.460  -1.592  -0.067  0.00  0.00    -0.142 OA
BRANCH   7  10
ATOM     10  O   LIG    1        6.545   0.400   1.399  0.00  0.00    -0.250 OA
ATOM     11  H   LIG    1        6.226  -0.204   2.088  0.00  0.00    +0.245 HD
ENDBRANCH   7  10
ENDBRANCH   4   7
BRANCH   6  12
ATOM     12  S   LIG    1        1.551  -1.732  -2.352  0.00  0.00    +0.110 S 
ATOM     13  O   LIG    1        0.901  -0.742  -3.220  0.00  0.00    -0.142 OA
ATOM     14  O   LIG    1        0.640  -2.575  -1.570  0.00  0.00    -0.142 OA
BRANCH  12  15
ATOM     15  O   LIG    1        2.655  -2.462  -2.987  0.00  0.00    -0.250 OA
ATOM     16  H   LIG    1        3.031  -3.093  -2.354  0.00  0.00    +0.245 HD
ENDBRANCH  12  15
ENDBRANCH   6  12
BRANCH   1  18
ATOM     17  N   LIG    1       -0.712   1.005   0.432  0.00  0.00    -0.219 N 
ATOM     18  C   LIG    1        0.137   0.278  -0.312  0.00  0.00    +0.133 C 
BRANCH  17  20
ATOM     19  C   LIG    1       -2.704   0.109  -1.027  0.00  0.00    +0.037 C 
ATOM     20  C   LIG    1       -2.245   0.994   0.170  0.00  0.00    +0.069 C 
ATOM     21  C   LIG    1       -2.925   0.471   1.461  0.00  0.00    +0.037 C 
ATOM     22  C   LIG    1       -2.672   2.457  -0.108  0.00  0.00    +0.037 C 
ENDBRANCH  17  20
BRANCH  17  23
ATOM     23  O   LIG    1       -0.388   1.746   1.402  0.00  0.00    -0.431 OA
ATOM     24  H   LIG    1       -1.047   2.221   1.869  0.00  0.00    +0.325 HD
ENDBRANCH  17  23
ENDBRANCH   1  18
TORSDOF 7
