REMARK  Name = DB17999
REMARK                            x       y       z     vdW  Elec       q    Type
REMARK                         _______ _______ _______ _____ _____    ______ ____
ROOT
ATOM      1  O   LIG    1        3.179  -1.698  -0.361  0.00  0.00    -0.489 OA
ENDROOT
BRANCH   1   2
ATOM      2  C   LIG    1        3.764  -2.904  -0.066  0.00  0.00    +0.156 A 
ATOM      3  C   LIG    1        4.611  -3.022   1.038  0.00  0.00    +0.165 A 
ATOM      4  F   LIG    1        4.855  -1.951   1.829  0.00  0.00    -0.202 F 
ATOM      5  C   LIG    1        5.207  -4.247   1.329  0.00  0.00    +0.043 A 
ATOM      6  C   LIG    1        4.961  -5.355   0.519  0.00  0.00    +0.018 A 
ATOM      7  C   LIG    1        4.114  -5.262  -0.601  0.00  0.00    +0.062 A 
ATOM      8  C   LIG    1        3.524  -4.015  -0.878  0.00  0.00    +0.063 A 
BRANCH   7   9
ATOM      9  C   LIG    1        3.849  -6.459  -1.476  0.00  0.00    +0.337 C 
ATOM     10  O   LIG    1        4.763  -7.307  -1.612  0.00  0.00    -0.245 OA
BRANCH   9  11
ATOM     11  O   LIG    1        2.727  -6.553  -2.027  0.00  0.00    -0.477 OA
ATOM     12  H   LIG    1        2.535  -7.288  -2.576  0.00  0.00    +0.295 HD
ENDBRANCH   9  11
ENDBRANCH   7   9
ENDBRANCH   1   2
BRANCH   1  13
ATOM     13  C   LIG    1        1.858  -1.551   0.146  0.00  0.00    +0.229 C 
BRANCH  13  14
ATOM     14  C   LIG    1        1.383  -0.116  -0.122  0.00  0.00    +0.046 C 
BRANCH  14  15
ATOM     15  C   LIG    1       -0.043   0.149   0.394  0.00  0.00    +0.042 C 
BRANCH  15  18
ATOM     16  C   LIG    1       -1.325   1.392  -2.372  0.00  0.00    +0.068 C 
ATOM     17  C   LIG    1       -1.042   2.097  -1.064  0.00  0.00    +0.063 A 
ATOM     18  C   LIG    1       -0.491   1.572   0.125  0.00  0.00    -0.004 A 
ATOM     19  C   LIG    1       -0.445   2.656   0.996  0.00  0.00    +0.036 A 
ATOM     20  C   LIG    1        0.031   2.819   2.421  0.00  0.00    +0.065 C 
ATOM     21  N   LIG    1       -0.961   3.701   0.283  0.00  0.00    -0.281 N 
ATOM     22  H   LIG    1       -1.065   4.640   0.639  0.00  0.00    +0.189 HD
ATOM     23  N   LIG    1       -1.322   3.377  -0.956  0.00  0.00    -0.179 NA
ENDBRANCH  15  18
ENDBRANCH  14  15
ENDBRANCH  13  14
ENDBRANCH   1  13
TORSDOF 7
