REMARK  Name = DB17299
REMARK                            x       y       z     vdW  Elec       q    Type
REMARK                         _______ _______ _______ _____ _____    ______ ____
ROOT
ATOM      1  C   LIG    1       -4.250  -0.049   0.070  0.00  0.00    +0.044 C 
ATOM      2  C   LIG    1       -2.733  -0.009   0.029  0.00  0.00    -0.050 A 
ATOM      3  C   LIG    1       -2.060   1.215   0.021  0.00  0.00    +0.005 A 
ATOM      4  C   LIG    1       -0.669   1.242  -0.017  0.00  0.00    +0.029 A 
ATOM      5  C   LIG    1        0.049   0.045  -0.049  0.00  0.00    +0.105 A 
ATOM      6  C   LIG    1       -0.622  -1.180  -0.041  0.00  0.00    +0.029 A 
ATOM      7  C   LIG    1       -2.013  -1.206  -0.002  0.00  0.00    +0.005 A 
ENDROOT
BRANCH   5   8
ATOM      8  S   LIG    1        1.839   0.086  -0.099  0.00  0.00    +0.056 S 
ATOM      9  O   LIG    1        2.231   1.331  -0.770  0.00  0.00    -0.153 OA
ATOM     10  O   LIG    1        2.302  -1.215  -0.594  0.00  0.00    -0.153 OA
BRANCH   8  11
ATOM     11  N   LIG    1        2.319   0.217   1.581  0.00  0.00    -0.204 NA
ATOM     12  H   LIG    1        2.104  -0.607   2.149  0.00  0.00    +0.144 HD
ATOM     13  H   LIG    1        2.055   1.098   2.031  0.00  0.00    +0.144 HD
ENDBRANCH   8  11
ENDBRANCH   5   8
TORSDOF 2
