REMARK  Name = DB17158
REMARK                            x       y       z     vdW  Elec       q    Type
REMARK                         _______ _______ _______ _____ _____    ______ ____
ROOT
ATOM      1  C   LIG    1       -0.401   5.228   1.132  0.00  0.00    +0.163 C 
ATOM      2  C   LIG    1       -1.121   5.888   2.335  0.00  0.00    +0.234 C 
ATOM      3  O   LIG    1       -1.236   7.111   2.356  0.00  0.00    -0.274 OA
ATOM      4  N   LIG    1       -1.633   5.148   3.344  0.00  0.00    -0.302 N 
ATOM      5  H   LIG    1       -2.084   5.670   4.082  0.00  0.00    +0.150 HD
ATOM      6  C   LIG    1       -1.694   3.694   3.557  0.00  0.00    +0.159 C 
ATOM      7  C   LIG    1       -2.638   2.949   2.593  0.00  0.00    +0.234 C 
ATOM      8  O   LIG    1       -3.553   3.555   2.035  0.00  0.00    -0.274 OA
ATOM      9  N   LIG    1       -2.417   1.623   2.505  0.00  0.00    -0.300 N 
ATOM     10  H   LIG    1       -1.615   1.253   2.994  0.00  0.00    +0.150 HD
ATOM     11  C   LIG    1       -3.276   0.589   1.909  0.00  0.00    +0.187 C 
ATOM     12  C   LIG    1       -3.467   0.707   0.381  0.00  0.00    +0.237 C 
ATOM     13  O   LIG    1       -4.172   1.600  -0.090  0.00  0.00    -0.274 OA
ATOM     14  N   LIG    1       -2.851  -0.233  -0.357  0.00  0.00    -0.302 N 
ATOM     15  H   LIG    1       -2.278  -0.925   0.105  0.00  0.00    +0.150 HD
ATOM     16  C   LIG    1       -2.978  -0.386  -1.810  0.00  0.00    +0.169 C 
ATOM     17  C   LIG    1       -1.692  -1.024  -2.386  0.00  0.00    +0.112 C 
ATOM     18  S   LIG    1       -1.315  -2.752  -1.949  0.00  0.00    -0.091 S 
ATOM     19  S   LIG    1       -0.738  -2.736   0.009  0.00  0.00    -0.091 S 
ATOM     20  C   LIG    1        1.061  -2.433   0.014  0.00  0.00    +0.112 C 
ATOM     21  C   LIG    1        1.610  -1.107  -0.579  0.00  0.00    +0.169 C 
ATOM     22  C   LIG    1        0.960   0.178  -0.042  0.00  0.00    +0.235 C 
ATOM     23  O   LIG    1        0.172   0.125   0.903  0.00  0.00    -0.274 OA
ATOM     24  N   LIG    1        1.314   1.322  -0.666  0.00  0.00    -0.302 N 
ATOM     25  H   LIG    1        1.985   1.280  -1.419  0.00  0.00    +0.150 HD
ATOM     26  C   LIG    1        0.734   2.653  -0.408  0.00  0.00    +0.163 C 
ATOM     27  C   LIG    1        1.116   3.162   1.024  0.00  0.00    +0.234 C 
ATOM     28  O   LIG    1        1.975   2.541   1.650  0.00  0.00    -0.274 OA
ATOM     29  N   LIG    1        0.611   4.278   1.584  0.00  0.00    -0.302 N 
ATOM     30  H   LIG    1        0.978   4.513   2.495  0.00  0.00    +0.150 HD
ENDROOT
BRANCH  16  31
ATOM     31  C   LIG    1       -4.224  -1.186  -2.236  0.00  0.00    +0.235 C 
ATOM     32  N   LIG    1       -4.800  -1.984  -1.317  0.00  0.00    -0.302 N 
ATOM     33  H   LIG    1       -4.414  -2.022  -0.386  0.00  0.00    +0.150 HD
ATOM     34  O   LIG    1       -4.628  -1.069  -3.392  0.00  0.00    -0.274 OA
BRANCH  32  35
ATOM     35  C   LIG    1       -5.907  -2.905  -1.587  0.00  0.00    +0.163 C 
BRANCH  35  36
ATOM     36  C   LIG    1       -5.463  -4.088  -2.477  0.00  0.00    +0.231 C 
ATOM     37  O   LIG    1       -4.467  -4.748  -2.180  0.00  0.00    -0.274 OA
ATOM     38  N   LIG    1       -6.224  -4.364  -3.540  0.00  0.00    -0.328 N 
ATOM     39  H   LIG    1       -5.985  -5.133  -4.148  0.00  0.00    +0.145 HD
ATOM     40  H   LIG    1       -7.040  -3.805  -3.745  0.00  0.00    +0.145 HD
ENDBRANCH  35  36
BRANCH  35  41
ATOM     41  C   LIG    1       -6.480  -3.380  -0.233  0.00  0.00    +0.067 C 
BRANCH  41  42
ATOM     42  C   LIG    1       -7.621  -4.381  -0.319  0.00  0.00    -0.045 A 
ATOM     43  C   LIG    1       -7.396  -5.746  -0.040  0.00  0.00    +0.007 A 
ATOM     44  C   LIG    1       -8.456  -6.670  -0.128  0.00  0.00    +0.045 A 
ATOM     45  C   LIG    1       -9.744  -6.232  -0.493  0.00  0.00    +0.117 A 
ATOM     46  C   LIG    1       -9.972  -4.870  -0.771  0.00  0.00    +0.045 A 
ATOM     47  C   LIG    1       -8.912  -3.946  -0.684  0.00  0.00    +0.007 A 
BRANCH  45  48
ATOM     48  O   LIG    1      -10.771  -7.126  -0.580  0.00  0.00    -0.507 OA
ATOM     49  H   LIG    1      -10.506  -8.025  -0.370  0.00  0.00    +0.292 HD
ENDBRANCH  45  48
ENDBRANCH  41  42
ENDBRANCH  35  41
ENDBRANCH  32  35
ENDBRANCH  16  31
BRANCH  21  50
ATOM     50  N   LIG    1        3.053  -1.021  -0.362  0.00  0.00    -0.302 N 
ATOM     51  H   LIG    1        3.349  -0.411   0.387  0.00  0.00    +0.150 HD
ATOM     52  C   LIG    1        3.976  -1.687  -1.072  0.00  0.00    +0.234 C 
ATOM     53  O   LIG    1        3.716  -2.449  -2.004  0.00  0.00    -0.274 OA
BRANCH  52  54
ATOM     54  C   LIG    1        5.444  -1.429  -0.679  0.00  0.00    +0.163 C 
BRANCH  54  55
ATOM     55  N   LIG    1        6.158  -2.688  -0.445  0.00  0.00    -0.304 N 
ATOM     56  H   LIG    1        6.818  -2.951  -1.163  0.00  0.00    +0.149 HD
ATOM     57  C   LIG    1        5.923  -3.547   0.562  0.00  0.00    +0.214 C 
ATOM     58  O   LIG    1        5.131  -3.320   1.478  0.00  0.00    -0.276 OA
BRANCH  57  59
ATOM     59  C   LIG    1        6.678  -4.883   0.512  0.00  0.00    +0.098 C 
BRANCH  59  60
ATOM     60  C   LIG    1        5.888  -6.022  -0.183  0.00  0.00    +0.039 C 
BRANCH  60  61
ATOM     61  C   LIG    1        5.436  -5.735  -1.661  0.00  0.00    +0.166 C 
BRANCH  61  62
ATOM     62  N   LIG    1        4.208  -6.469  -2.094  0.00  0.00    -0.291 NA
ATOM     63  C   LIG    1        4.328  -7.936  -2.177  0.00  0.00    +0.100 C 
ATOM     64  C   LIG    1        4.595  -8.458  -3.616  0.00  0.00    +0.100 C 
ATOM     65  N   LIG    1        3.680  -7.950  -4.659  0.00  0.00    -0.293 NA
ATOM     66  C   LIG    1        2.275  -8.329  -4.426  0.00  0.00    +0.066 C 
ATOM     67  C   LIG    1        1.318  -7.113  -4.532  0.00  0.00    -0.062 C 
ATOM     68  N   LIG    1        1.748  -5.956  -3.593  0.00  0.00    +0.388 N 
ATOM     69  H   LIG    1        2.727  -5.785  -3.792  0.00  0.00    -0.081 HD
ATOM     70  C   LIG    1        1.678  -6.350  -2.094  0.00  0.00    -0.062 C 
ATOM     71  C   LIG    1        3.004  -6.019  -1.378  0.00  0.00    +0.067 C 
BRANCH  65  72
ATOM     72  C   LIG    1        4.070  -8.366  -6.021  0.00  0.00    +0.205 C 
BRANCH  72  73
ATOM     73  C   LIG    1        5.385  -7.729  -6.520  0.00  0.00    +0.319 C 
ATOM     74  O   LIG    1        6.395  -8.467  -6.570  0.00  0.00    -0.250 OA
BRANCH  73  75
ATOM     75  O   LIG    1        5.349  -6.535  -6.896  0.00  0.00    -0.480 OA
ATOM     76  H   LIG    1        6.129  -6.118  -7.204  0.00  0.00    +0.295 HD
ENDBRANCH  73  75
ENDBRANCH  72  73
ENDBRANCH  65  72
BRANCH  68  77
ATOM     77  C   LIG    1        1.016  -4.611  -3.858  0.00  0.00    +0.044 C 
BRANCH  77  78
ATOM     78  C   LIG    1        1.581  -3.850  -5.079  0.00  0.00    +0.288 C 
ATOM     79  O   LIG    1        2.568  -4.288  -5.714  0.00  0.00    -0.253 OA
BRANCH  78  80
ATOM     80  O   LIG    1        0.992  -2.780  -5.352  0.00  0.00    -0.482 OA
ATOM     81  H   LIG    1        1.275  -2.261  -6.078  0.00  0.00    +0.295 HD
ENDBRANCH  78  80
ENDBRANCH  77  78
ENDBRANCH  68  77
ENDBRANCH  61  62
BRANCH  61  82
ATOM     82  C   LIG    1        6.580  -5.731  -2.748  0.00  0.00    +0.322 C 
ATOM     83  O   LIG    1        6.254  -5.213  -3.840  0.00  0.00    -0.249 OA
BRANCH  82  84
ATOM     84  O   LIG    1        7.689  -6.202  -2.404  0.00  0.00    -0.480 OA
ATOM     85  H   LIG    1        8.399  -6.221  -3.016  0.00  0.00    +0.295 HD
ENDBRANCH  82  84
ENDBRANCH  61  82
ENDBRANCH  60  61
ENDBRANCH  59  60
ENDBRANCH  57  59
ENDBRANCH  54  55
BRANCH  54  86
ATOM     86  C   LIG    1        6.139  -0.565  -1.765  0.00  0.00    +0.067 C 
BRANCH  86  87
ATOM     87  C   LIG    1        7.600  -0.235  -1.455  0.00  0.00    -0.045 A 
ATOM     88  C   LIG    1        8.580  -0.460  -2.428  0.00  0.00    +0.005 A 
ATOM     89  C   LIG    1        9.913  -0.159  -2.161  0.00  0.00    +0.020 A 
ATOM     90  C   LIG    1       10.267   0.372  -0.922  0.00  0.00    +0.041 A 
ATOM     91 CL   LIG    1       11.919   0.747  -0.592  0.00  0.00    -0.084 Cl
ATOM     92  C   LIG    1        9.297   0.607   0.051  0.00  0.00    +0.020 A 
ATOM     93  C   LIG    1        7.964   0.305  -0.216  0.00  0.00    +0.005 A 
ENDBRANCH  86  87
ENDBRANCH  54  86
ENDBRANCH  52  54
ENDBRANCH  21  50
BRANCH  11  94
ATOM     94  C   LIG    1       -4.675   0.514   2.594  0.00  0.00    +0.141 C 
ATOM     95  C   LIG    1       -5.606  -0.590   2.059  0.00  0.00    +0.040 C 
BRANCH  94  96
ATOM     96  O   LIG    1       -4.500   0.290   3.981  0.00  0.00    -0.390 OA
ATOM     97  H   LIG    1       -4.196  -0.612   4.107  0.00  0.00    +0.210 HD
ENDBRANCH  94  96
ENDBRANCH  11  94
BRANCH  26  98
ATOM     98  C   LIG    1       -0.784   2.630  -0.795  0.00  0.00    +0.067 C 
BRANCH  98  99
ATOM     99  C   LIG    1       -1.235   3.684  -1.807  0.00  0.00    -0.045 A 
ATOM    100  C   LIG    1       -0.492   3.930  -2.966  0.00  0.00    +0.005 A 
ATOM    101  C   LIG    1       -0.901   4.910  -3.865  0.00  0.00    +0.023 A 
ATOM    102  C   LIG    1       -2.070   5.646  -3.617  0.00  0.00    +0.033 A 
ATOM    103  C   LIG    1       -2.843   5.354  -2.492  0.00  0.00    +0.023 A 
ATOM    104  C   LIG    1       -2.430   4.375  -1.595  0.00  0.00    +0.005 A 
BRANCH 102 105
ATOM    105  N   LIG    1       -2.553   6.668  -4.453  0.00  0.00    -0.284 N 
ATOM    106  H   LIG    1       -3.526   6.899  -4.313  0.00  0.00    +0.155 HD
ATOM    107  C   LIG    1       -1.870   7.439  -5.332  0.00  0.00    +0.238 C 
ATOM    108  O   LIG    1       -0.657   7.347  -5.531  0.00  0.00    -0.273 OA
BRANCH 107 109
ATOM    109  C   LIG    1       -2.710   8.500  -6.096  0.00  0.00    +0.169 C 
ATOM    110  N   LIG    1       -3.478   9.333  -5.145  0.00  0.00    -0.287 N 
ATOM    111  H   LIG    1       -4.271   8.910  -4.685  0.00  0.00    +0.151 HD
ATOM    112  C   LIG    1       -3.014  10.497  -4.628  0.00  0.00    +0.306 C 
ATOM    113  O   LIG    1       -3.513  11.013  -3.632  0.00  0.00    -0.252 OA
ATOM    114  N   LIG    1       -1.928  11.019  -5.251  0.00  0.00    -0.240 N 
ATOM    115  H   LIG    1       -1.559  11.848  -4.810  0.00  0.00    +0.159 HD
ATOM    116  C   LIG    1       -1.254  10.637  -6.360  0.00  0.00    +0.223 C 
ATOM    117  O   LIG    1       -0.275  11.244  -6.785  0.00  0.00    -0.275 OA
ATOM    118  C   LIG    1       -1.869   9.404  -7.059  0.00  0.00    +0.128 C 
ENDBRANCH 107 109
ENDBRANCH 102 105
ENDBRANCH  98  99
ENDBRANCH  26  98
BRANCH   6 119
ATOM    119  C   LIG    1       -2.103   3.448   5.030  0.00  0.00    +0.032 C 
BRANCH 119 120
ATOM    120  C   LIG    1       -3.544   3.858   5.404  0.00  0.00    +0.000 C 
BRANCH 120 121
ATOM    121  C   LIG    1       -3.862   3.604   6.885  0.00  0.00    -0.019 C 
BRANCH 121 122
ATOM    122  C   LIG    1       -5.305   3.992   7.245  0.00  0.00    -0.086 C 
BRANCH 122 123
ATOM    123  N   LIG    1       -5.603   3.736   8.665  0.00  0.00    +0.378 N 
ATOM    124  H   LIG    1       -5.479   2.754   8.865  0.00  0.00    -0.090 HD
ATOM    125  H   LIG    1       -4.978   4.279   9.245  0.00  0.00    -0.090 HD
ATOM    126  H   LIG    1       -6.558   4.001   8.862  0.00  0.00    -0.090 HD
ENDBRANCH 122 123
ENDBRANCH 121 122
ENDBRANCH 120 121
ENDBRANCH 119 120
ENDBRANCH   6 119
BRANCH   1 127
ATOM    127  C   LIG    1        0.131   6.231   0.058  0.00  0.00    +0.067 C 
BRANCH 127 128
ATOM    128  C   LIG    1        1.402   6.986   0.452  0.00  0.00    -0.045 A 
ATOM    129  C   LIG    1        1.321   8.285   0.959  0.00  0.00    +0.005 A 
ATOM    130  C   LIG    1        2.477   8.975   1.311  0.00  0.00    +0.023 A 
ATOM    131  C   LIG    1        3.733   8.372   1.143  0.00  0.00    +0.035 A 
ATOM    132  C   LIG    1        3.811   7.075   0.631  0.00  0.00    +0.023 A 
ATOM    133  C   LIG    1        2.653   6.388   0.279  0.00  0.00    +0.005 A 
BRANCH 131 134
ATOM    134  N   LIG    1        4.960   8.976   1.477  0.00  0.00    -0.270 N 
ATOM    135  H   LIG    1        5.751   8.348   1.466  0.00  0.00    +0.156 HD
ATOM    136  C   LIG    1        5.226  10.268   1.752  0.00  0.00    +0.301 C 
ATOM    137  O   LIG    1        4.428  11.202   1.726  0.00  0.00    -0.253 OA
ATOM    138  N   LIG    1        6.510  10.448   2.063  0.00  0.00    -0.313 N 
ATOM    139  H   LIG    1        6.849  11.372   2.288  0.00  0.00    +0.146 HD
ATOM    140  H   LIG    1        7.147   9.666   2.086  0.00  0.00    +0.146 HD
ENDBRANCH 131 134
ENDBRANCH 127 128
ENDBRANCH   1 127
TORSDOF 37
