REMARK  Name = DB17874
REMARK                            x       y       z     vdW  Elec       q    Type
REMARK                         _______ _______ _______ _____ _____    ______ ____
ROOT
ATOM      1  O   LIG    1       -0.459   2.272   1.184  0.00  0.00    -0.271 OA
ATOM      2  C   LIG    1       -0.934   1.214   0.758  0.00  0.00    +0.266 C 
ATOM      3  N   LIG    1       -0.191   0.160   0.366  0.00  0.00    -0.205 N 
ATOM      4  H   LIG    1       -0.613  -0.694   0.030  0.00  0.00    +0.177 HD
ENDROOT
BRANCH   3   5
ATOM      5  N   LIG    1        1.155   0.186   0.360  0.00  0.00    -0.188 NA
ATOM      6  C   LIG    1        1.674  -0.900  -0.052  0.00  0.00    +0.138 C 
BRANCH   6   7
ATOM      7  C   LIG    1        3.124  -1.113  -0.176  0.00  0.00    +0.002 A 
ATOM      8  C   LIG    1        3.602  -2.361  -0.589  0.00  0.00    +0.056 A 
ATOM      9  C   LIG    1        4.978  -2.611  -0.725  0.00  0.00    +0.138 A 
ATOM     10  C   LIG    1        5.882  -1.582  -0.440  0.00  0.00    +0.101 A 
ATOM     11 BR   LIG    1        7.757  -1.901  -0.621  0.00  0.00    -0.043 Br
ATOM     12  C   LIG    1        5.436  -0.322  -0.026  0.00  0.00    +0.138 A 
ATOM     13  C   LIG    1        4.055  -0.103   0.103  0.00  0.00    +0.056 A 
BRANCH   9  14
ATOM     14  O   LIG    1        5.505  -3.825  -1.126  0.00  0.00    -0.494 OA
ATOM     15  C   LIG    1        4.630  -4.910  -1.419  0.00  0.00    +0.277 C 
ENDBRANCH   9  14
BRANCH  12  16
ATOM     16  O   LIG    1        6.396   0.640   0.232  0.00  0.00    -0.494 OA
ATOM     17  C   LIG    1        5.994   1.941   0.645  0.00  0.00    +0.277 C 
ENDBRANCH  12  16
ENDBRANCH   6   7
ENDBRANCH   3   5
BRANCH   2  18
ATOM     18  C   LIG    1       -2.461   1.042   0.630  0.00  0.00    +0.235 C 
BRANCH  18  19
ATOM     19  C   LIG    1       -2.919   1.375  -0.796  0.00  0.00    -0.010 A 
ATOM     20  C   LIG    1       -2.854   2.686  -1.278  0.00  0.00    +0.009 A 
ATOM     21  C   LIG    1       -3.265   2.978  -2.575  0.00  0.00    +0.028 A 
ATOM     22  C   LIG    1       -3.748   1.960  -3.407  0.00  0.00    +0.065 A 
ATOM     23  C   LIG    1       -3.815   0.646  -2.920  0.00  0.00    +0.028 A 
ATOM     24  C   LIG    1       -3.404   0.358  -1.622  0.00  0.00    +0.009 A 
BRANCH  22  25
ATOM     25  N   LIG    1       -4.159   2.265  -4.731  0.00  0.00    -0.240 N 
ATOM     26  C   LIG    1       -3.762   3.324  -5.519  0.00  0.00    +0.114 A 
ATOM     27  C   LIG    1       -4.420   3.183  -6.724  0.00  0.00    +0.041 A 
ATOM     28  C   LIG    1       -5.178   2.021  -6.577  0.00  0.00    +0.135 A 
ATOM     29  N   LIG    1       -5.021   1.469  -5.396  0.00  0.00    -0.175 NA
ENDBRANCH  22  25
ENDBRANCH  18  19
BRANCH  18  30
ATOM     30  O   LIG    1       -3.098   1.899   1.582  0.00  0.00    -0.366 OA
ATOM     31  C   LIG    1       -4.501   1.714   1.732  0.00  0.00    +0.195 C 
ENDBRANCH  18  30
ENDBRANCH   2  18
TORSDOF 8
