REMARK  Name = DB17034
REMARK                            x       y       z     vdW  Elec       q    Type
REMARK                         _______ _______ _______ _____ _____    ______ ____
ROOT
ATOM      1  N   LIG    1       -0.310  -0.840   0.413  0.00  0.00    +0.384 N 
ATOM      2  H   LIG    1       -0.653   0.112   0.410  0.00  0.00    -0.081 HD
ENDROOT
BRANCH   1   3
ATOM      3  C   LIG    1       -0.714  -1.438   1.786  0.00  0.00    -0.050 C 
BRANCH   3   4
ATOM      4  C   LIG    1       -0.267  -0.574   2.986  0.00  0.00    +0.137 C 
BRANCH   4   5
ATOM      5  O   LIG    1       -0.660   0.778   2.856  0.00  0.00    -0.397 OA
ATOM      6  H   LIG    1       -0.395   1.252   3.648  0.00  0.00    +0.209 HD
ENDBRANCH   4   5
ENDBRANCH   3   4
ENDBRANCH   1   3
BRANCH   1   7
ATOM      7  C   LIG    1        1.216  -0.726   0.183  0.00  0.00    -0.043 C 
BRANCH   7   8
ATOM      8  C   LIG    1        1.569   0.317  -0.867  0.00  0.00    -0.064 A 
ATOM      9  C   LIG    1        1.893  -0.069  -2.169  0.00  0.00    +0.002 A 
ATOM     10  C   LIG    1        2.168   0.898  -3.131  0.00  0.00    +0.008 A 
ATOM     11  C   LIG    1        2.133   2.256  -2.801  0.00  0.00    -0.025 A 
ATOM     12  C   LIG    1        1.841   2.635  -1.485  0.00  0.00    +0.008 A 
ATOM     13  C   LIG    1        1.563   1.669  -0.522  0.00  0.00    +0.002 A 
BRANCH  11  14
ATOM     14  C   LIG    1        2.379   3.249  -3.866  0.00  0.00    +0.013 C 
ATOM     15  C   LIG    1        2.028   4.554  -3.830  0.00  0.00    +0.070 C 
BRANCH  15  16
ATOM     16  C   LIG    1        2.307   5.467  -4.915  0.00  0.00    +0.259 C 
ATOM     17  N   LIG    1        1.853   6.711  -4.680  0.00  0.00    -0.194 N 
ATOM     18  H   LIG    1        1.585   7.079  -3.779  0.00  0.00    +0.183 HD
ATOM     19  O   LIG    1        2.868   5.126  -5.961  0.00  0.00    -0.269 OA
BRANCH  17  20
ATOM     20  O   LIG    1        2.204   7.714  -5.590  0.00  0.00    -0.295 OA
ATOM     21  H   LIG    1        2.962   7.338  -6.046  0.00  0.00    +0.241 HD
ENDBRANCH  17  20
ENDBRANCH  15  16
ENDBRANCH  11  14
ENDBRANCH   7   8
ENDBRANCH   1   7
BRANCH   1  22
ATOM     22  C   LIG    1       -1.038  -1.555  -0.755  0.00  0.00    -0.074 C 
BRANCH  22  23
ATOM     23  C   LIG    1       -2.326  -0.799  -1.136  0.00  0.00    +0.019 C 
BRANCH  23  24
ATOM     24  C   LIG    1       -2.038   0.495  -1.875  0.00  0.00    -0.024 A 
ATOM     25  C   LIG    1       -1.888   1.810  -1.305  0.00  0.00    +0.003 A 
ATOM     26  C   LIG    1       -1.975   2.320   0.001  0.00  0.00    +0.010 A 
ATOM     27  C   LIG    1       -1.750   3.678   0.218  0.00  0.00    +0.001 A 
ATOM     28  C   LIG    1       -1.452   4.535  -0.837  0.00  0.00    +0.002 A 
ATOM     29  C   LIG    1       -1.365   4.081  -2.153  0.00  0.00    +0.026 A 
ATOM     30  C   LIG    1       -1.584   2.716  -2.368  0.00  0.00    +0.047 A 
ATOM     31  N   LIG    1       -1.561   1.969  -3.524  0.00  0.00    -0.360 N 
ATOM     32  H   LIG    1       -1.375   2.291  -4.463  0.00  0.00    +0.165 HD
ATOM     33  C   LIG    1       -1.829   0.658  -3.233  0.00  0.00    +0.087 A 
ENDBRANCH  23  24
ENDBRANCH  22  23
ENDBRANCH   1  22
TORSDOF 11
