REMARK  Name = DB17020
REMARK                            x       y       z     vdW  Elec       q    Type
REMARK                         _______ _______ _______ _____ _____    ______ ____
ROOT
ATOM      1  N   LIG    1        2.047  -0.010   1.639  0.00  0.00    -0.262 N 
ATOM      2  C   LIG    1        1.675  -0.505   2.856  0.00  0.00    +0.251 C 
ATOM      3  O   LIG    1        0.840  -1.407   2.973  0.00  0.00    -0.272 OA
ENDROOT
BRANCH   1   4
ATOM      4  C   LIG    1        3.214   0.767   1.497  0.00  0.00    +0.079 A 
ATOM      5  C   LIG    1        4.411   0.186   1.043  0.00  0.00    +0.150 A 
ATOM      6  C   LIG    1        5.554   0.987   0.907  0.00  0.00    +0.048 A 
ATOM      7  C   LIG    1        5.502   2.349   1.197  0.00  0.00    +0.004 A 
ATOM      8  C   LIG    1        4.310   2.925   1.633  0.00  0.00    +0.002 A 
ATOM      9  C   LIG    1        3.170   2.138   1.783  0.00  0.00    +0.027 A 
BRANCH   5  10
ATOM     10  O   LIG    1        4.463  -1.168   0.786  0.00  0.00    -0.454 OA
BRANCH  10  11
ATOM     11  C   LIG    1        4.970  -1.647  -0.405  0.00  0.00    +0.129 A 
ATOM     12  C   LIG    1        4.818  -0.963  -1.620  0.00  0.00    +0.046 A 
ATOM     13  C   LIG    1        5.330  -1.507  -2.795  0.00  0.00    +0.004 A 
ATOM     14  C   LIG    1        5.984  -2.736  -2.758  0.00  0.00    +0.000 A 
ATOM     15  C   LIG    1        6.126  -3.429  -1.558  0.00  0.00    +0.004 A 
ATOM     16  C   LIG    1        5.613  -2.885  -0.383  0.00  0.00    +0.046 A 
ENDBRANCH  10  11
ENDBRANCH   5  10
ENDBRANCH   1   4
BRANCH   2  17
ATOM     17  C   LIG    1        2.297   0.088   4.138  0.00  0.00    +0.309 C 
ATOM     18  F   LIG    1        1.804  -0.501   5.230  0.00  0.00    -0.239 F 
ENDBRANCH   2  17
BRANCH   1  19
ATOM     19  C   LIG    1        1.455  -0.547   0.397  0.00  0.00    +0.152 C 
BRANCH  19  22
ATOM     20  C   LIG    1       -2.240  -1.268  -0.237  0.00  0.00    +0.121 A 
ATOM     21  C   LIG    1       -0.864  -1.412  -0.059  0.00  0.00    +0.054 A 
ATOM     22  C   LIG    1       -0.045  -0.309   0.202  0.00  0.00    +0.015 A 
ATOM     23  C   LIG    1       -0.602   0.979   0.268  0.00  0.00    +0.125 A 
ATOM     24  C   LIG    1       -1.988   1.124   0.090  0.00  0.00    +0.049 A 
ATOM     25  C   LIG    1       -2.797   0.016  -0.156  0.00  0.00    +0.049 A 
BRANCH  20  27
ATOM     26  C   LIG    1       -4.371  -2.330  -0.664  0.00  0.00    +0.277 C 
ATOM     27  O   LIG    1       -2.962  -2.421  -0.481  0.00  0.00    -0.495 OA
ENDBRANCH  20  27
BRANCH  23  28
ATOM     28  O   LIG    1        0.253   2.043   0.490  0.00  0.00    -0.495 OA
ATOM     29  C   LIG    1       -0.271   3.365   0.558  0.00  0.00    +0.277 C 
ENDBRANCH  23  28
ENDBRANCH  19  22
ENDBRANCH   1  19
TORSDOF 8
