REMARK  Name = DB17191
REMARK                            x       y       z     vdW  Elec       q    Type
REMARK                         _______ _______ _______ _____ _____    ______ ____
ROOT
ATOM      1  C   LIG    1        1.028  -0.470  -0.061  0.00  0.00    +0.072 A 
ATOM      2  C   LIG    1        2.135   0.372   0.147  0.00  0.00    +0.068 A 
ATOM      3  C   LIG    1        3.433  -0.119   0.007  0.00  0.00    +0.167 A 
ATOM      4  F   LIG    1        4.486   0.705   0.216  0.00  0.00    -0.202 F 
ATOM      5  C   LIG    1        3.644  -1.456  -0.345  0.00  0.00    +0.166 A 
ATOM      6  C   LIG    1        2.550  -2.301  -0.532  0.00  0.00    +0.089 A 
ATOM      7  C   LIG    1        1.250  -1.814  -0.394  0.00  0.00    +0.148 A 
ATOM      8  F   LIG    1        0.209  -2.659  -0.589  0.00  0.00    -0.203 F 
ENDROOT
BRANCH   1  10
ATOM      9  C   LIG    1       -0.820   1.200   0.006  0.00  0.00    +0.232 C 
ATOM     10  N   LIG    1       -0.311  -0.051   0.060  0.00  0.00    -0.282 N 
ATOM     11  H   LIG    1       -0.982  -0.804   0.117  0.00  0.00    +0.155 HD
ATOM     12  O   LIG    1       -0.165   2.214  -0.237  0.00  0.00    -0.274 OA
BRANCH   9  13
ATOM     13  C   LIG    1       -2.355   1.318   0.142  0.00  0.00    +0.123 C 
ATOM     14  C   LIG    1       -3.002   0.484   1.246  0.00  0.00    +0.027 C 
ATOM     15  C   LIG    1       -2.794   1.965   1.452  0.00  0.00    +0.027 C 
BRANCH  13  18
ATOM     16  N   LIG    1       -2.634   1.825  -2.267  0.00  0.00    -0.285 N 
ATOM     17  H   LIG    1       -1.625   1.812  -2.243  0.00  0.00    +0.155 HD
ATOM     18  C   LIG    1       -3.258   1.659  -1.078  0.00  0.00    +0.232 C 
ATOM     19  O   LIG    1       -4.477   1.774  -0.925  0.00  0.00    -0.274 OA
BRANCH  16  24
ATOM     20  F   LIG    1       -4.503   2.989  -7.354  0.00  0.00    -0.205 F 
ATOM     21  C   LIG    1       -4.072   2.699  -6.106  0.00  0.00    +0.124 A 
ATOM     22  C   LIG    1       -4.963   2.179  -5.170  0.00  0.00    +0.040 A 
ATOM     23  C   LIG    1       -4.521   1.879  -3.884  0.00  0.00    +0.026 A 
ATOM     24  C   LIG    1       -3.181   2.107  -3.532  0.00  0.00    +0.034 A 
ATOM     25  C   LIG    1       -2.293   2.616  -4.484  0.00  0.00    +0.026 A 
ATOM     26  C   LIG    1       -2.739   2.917  -5.768  0.00  0.00    +0.040 A 
ENDBRANCH  16  24
ENDBRANCH  13  18
ENDBRANCH   9  13
ENDBRANCH   1  10
BRANCH   5  27
ATOM     27  O   LIG    1        4.916  -1.960  -0.473  0.00  0.00    -0.453 OA
BRANCH  27  28
ATOM     28  C   LIG    1        5.667  -1.713  -1.605  0.00  0.00    +0.133 A 
ATOM     29  C   LIG    1        7.000  -2.134  -1.596  0.00  0.00    +0.090 A 
ATOM     30  C   LIG    1        7.806  -1.915  -2.720  0.00  0.00    +0.128 A 
ATOM     31  N   LIG    1        7.321  -1.303  -3.838  0.00  0.00    -0.240 NA
ATOM     32  C   LIG    1        6.026  -0.902  -3.846  0.00  0.00    +0.116 A 
ATOM     33  C   LIG    1        5.171  -1.087  -2.761  0.00  0.00    +0.066 A 
BRANCH  30  34
ATOM     34  N   LIG    1        9.137  -2.364  -2.628  0.00  0.00    -0.270 N 
ATOM     35  H   LIG    1        9.371  -2.806  -1.752  0.00  0.00    +0.156 HD
ATOM     36  C   LIG    1       10.127  -2.275  -3.543  0.00  0.00    +0.221 C 
ATOM     37  O   LIG    1       10.006  -1.761  -4.658  0.00  0.00    -0.275 OA
BRANCH  36  38
ATOM     38  C   LIG    1       11.473  -2.875  -3.094  0.00  0.00    +0.075 C 
ATOM     39  C   LIG    1       12.317  -3.515  -4.177  0.00  0.00    +0.013 C 
ATOM     40  C   LIG    1       12.720  -2.176  -3.595  0.00  0.00    +0.013 C 
ENDBRANCH  36  38
ENDBRANCH  30  34
ENDBRANCH  27  28
ENDBRANCH   5  27
TORSDOF 8
