REMARK  Name = DB17520
REMARK                            x       y       z     vdW  Elec       q    Type
REMARK                         _______ _______ _______ _____ _____    ______ ____
ROOT
ATOM      1  C   LIG    1        1.043   0.267   0.863  0.00  0.00    +0.078 A 
ATOM      2  N   LIG    1        1.942  -0.111  -0.089  0.00  0.00    -0.248 NA
ATOM      3  C   LIG    1        3.265  -0.089   0.217  0.00  0.00    +0.081 A 
ATOM      4  C   LIG    1        4.200  -0.520  -0.902  0.00  0.00    +0.069 C 
ATOM      5  C   LIG    1        3.742   0.294   1.479  0.00  0.00    +0.149 A 
ATOM      6  C   LIG    1        2.812   0.682   2.447  0.00  0.00    +0.050 A 
ATOM      7  C   LIG    1        1.450   0.669   2.143  0.00  0.00    +0.032 A 
ENDROOT
BRANCH   1  13
ATOM      8  C   LIG    1       -3.009   0.025  -0.406  0.00  0.00    +0.198 A 
ATOM      9  N   LIG    1       -2.578   1.169   0.267  0.00  0.00    -0.284 N 
ATOM     10  C   LIG    1       -3.487   2.300   0.550  0.00  0.00    +0.155 C 
ATOM     11  C   LIG    1       -1.281   1.359   0.711  0.00  0.00    +0.264 A 
ATOM     12  O   LIG    1       -0.888   2.386   1.275  0.00  0.00    -0.267 OA
ATOM     13  C   LIG    1       -0.382   0.231   0.438  0.00  0.00    +0.083 A 
ATOM     14  C   LIG    1       -0.887  -0.835  -0.234  0.00  0.00    +0.129 A 
ATOM     15  N   LIG    1       -2.180  -0.938  -0.649  0.00  0.00    -0.223 NA
BRANCH   8  16
ATOM     16  N   LIG    1       -4.374  -0.059  -0.830  0.00  0.00    -0.312 N 
ATOM     17  H   LIG    1       -5.053   0.413  -0.251  0.00  0.00    +0.149 HD
BRANCH  16  19
ATOM     18  C   LIG    1       -6.138  -0.817  -2.324  0.00  0.00    +0.027 C 
ATOM     19  C   LIG    1       -4.920  -1.247  -1.490  0.00  0.00    +0.067 C 
ATOM     20  C   LIG    1       -5.287  -2.320  -0.446  0.00  0.00    +0.027 C 
ENDBRANCH  16  19
ENDBRANCH   8  16
ENDBRANCH   1  13
BRANCH   5  21
ATOM     21  O   LIG    1        5.084   0.308   1.778  0.00  0.00    -0.454 OA
BRANCH  21  22
ATOM     22  C   LIG    1        5.744  -0.853   2.131  0.00  0.00    +0.132 A 
ATOM     23  C   LIG    1        7.126  -0.770   2.322  0.00  0.00    +0.074 A 
ATOM     24  C   LIG    1        7.843  -1.919   2.680  0.00  0.00    +0.077 A 
ATOM     25  N   LIG    1        7.236  -3.124   2.853  0.00  0.00    -0.255 NA
ATOM     26  C   LIG    1        5.894  -3.198   2.671  0.00  0.00    +0.115 A 
ATOM     27  C   LIG    1        5.116  -2.097   2.314  0.00  0.00    +0.066 A 
BRANCH  24  28
ATOM     28  C   LIG    1        9.320  -1.893   2.897  0.00  0.00    +0.038 A 
ATOM     29  C   LIG    1       10.183  -0.808   2.811  0.00  0.00    +0.118 A 
ATOM     30  N   LIG    1       11.437  -1.283   3.092  0.00  0.00    -0.274 N 
ATOM     31  C   LIG    1       12.682  -0.538   3.155  0.00  0.00    +0.172 C 
ATOM     32  N   LIG    1       11.440  -2.592   3.362  0.00  0.00    -0.179 NA
ATOM     33  C   LIG    1       10.182  -2.952   3.240  0.00  0.00    +0.144 A 
ENDBRANCH  24  28
ENDBRANCH  21  22
ENDBRANCH   5  21
TORSDOF 6
