REMARK  Name = DB17731
REMARK                            x       y       z     vdW  Elec       q    Type
REMARK                         _______ _______ _______ _____ _____    ______ ____
ROOT
ATOM      1  C   LIG    1        1.454   0.061  -0.005  0.00  0.00    +0.130 A 
ATOM      2  C   LIG    1        2.132  -1.180  -0.007  0.00  0.00    +0.036 A 
ATOM      3  C   LIG    1        3.538  -1.182  -0.004  0.00  0.00    +0.013 A 
ATOM      4  C   LIG    1        4.263   0.006   0.001  0.00  0.00    +0.001 A 
ATOM      5  C   LIG    1        3.595   1.224   0.004  0.00  0.00    +0.004 A 
ATOM      6  C   LIG    1        2.204   1.252   0.001  0.00  0.00    +0.046 A 
ENDROOT
BRANCH   2   7
ATOM      7  C   LIG    1        1.382  -2.454  -0.011  0.00  0.00    +0.142 C 
ATOM      8  N   LIG    1        1.933  -3.602  -0.013  0.00  0.00    -0.187 NA
BRANCH   8   9
ATOM      9  N   LIG    1        1.042  -4.612  -0.012  0.00  0.00    -0.203 N 
ATOM     10  H   LIG    1        0.070  -4.337  -0.010  0.00  0.00    +0.178 HD
ATOM     11  C   LIG    1        1.412  -5.911  -0.008  0.00  0.00    +0.263 C 
ATOM     12  O   LIG    1        2.588  -6.289  -0.023  0.00  0.00    -0.268 OA
BRANCH  11  13
ATOM     13  C   LIG    1        0.286  -6.922   0.000  0.00  0.00    +0.041 A 
ATOM     14  C   LIG    1       -1.014  -6.585   0.420  0.00  0.00    +0.033 A 
ATOM     15  C   LIG    1       -2.008  -7.565   0.407  0.00  0.00    +0.111 A 
ATOM     16  N   LIG    1       -1.783  -8.841   0.008  0.00  0.00    -0.263 NA
ATOM     17  C   LIG    1       -0.527  -9.162  -0.393  0.00  0.00    +0.111 A 
ATOM     18  C   LIG    1        0.523  -8.244  -0.410  0.00  0.00    +0.033 A 
ENDBRANCH  11  13
ENDBRANCH   8   9
ENDBRANCH   2   7
BRANCH   1  19
ATOM     19  O   LIG    1        0.067   0.054  -0.009  0.00  0.00    -0.480 OA
BRANCH  19  20
ATOM     20  C   LIG    1       -0.658   1.284  -0.001  0.00  0.00    +0.349 C 
BRANCH  20  21
ATOM     21  C   LIG    1       -2.150   0.915  -0.011  0.00  0.00    +0.343 C 
ATOM     22  O   LIG    1       -2.721   0.781   1.096  0.00  0.00    -0.247 OA
BRANCH  21  23
ATOM     23  O   LIG    1       -2.703   0.765  -1.124  0.00  0.00    -0.478 OA
ATOM     24  H   LIG    1       -2.728   1.476  -1.734  0.00  0.00    +0.295 HD
ENDBRANCH  21  23
ENDBRANCH  20  21
ENDBRANCH  19  20
ENDBRANCH   1  19
TORSDOF 7
