REMARK  Name = DB17510
REMARK                            x       y       z     vdW  Elec       q    Type
REMARK                         _______ _______ _______ _____ _____    ______ ____
ROOT
ATOM      1  S   LIG    1        2.292   0.771   1.960  0.00  0.00    +0.005 S 
ATOM      2  O   LIG    1        1.362   0.968   3.079  0.00  0.00    -0.169 OA
ATOM      3  O   LIG    1        3.555   1.517   1.921  0.00  0.00    -0.169 OA
ENDROOT
BRANCH   1   4
ATOM      4  C   LIG    1        2.705  -0.986   1.889  0.00  0.00    +0.114 A 
ATOM      5  C   LIG    1        2.096  -1.856   2.797  0.00  0.00    +0.029 A 
ATOM      6  C   LIG    1        2.370  -3.219   2.785  0.00  0.00    +0.003 A 
ATOM      7  C   LIG    1        3.261  -3.754   1.862  0.00  0.00    +0.010 A 
ATOM      8  C   LIG    1        3.898  -2.914   0.920  0.00  0.00    +0.002 A 
ATOM      9  C   LIG    1        4.810  -3.419  -0.041  0.00  0.00    +0.011 A 
ATOM     10  C   LIG    1        5.405  -2.545  -0.947  0.00  0.00    +0.020 A 
ATOM     11  C   LIG    1        5.082  -1.194  -0.883  0.00  0.00    +0.111 A 
ATOM     12  N   LIG    1        4.214  -0.677   0.018  0.00  0.00    -0.253 NA
ATOM     13  C   LIG    1        3.622  -1.509   0.925  0.00  0.00    +0.096 A 
ENDBRANCH   1   4
BRANCH   1  14
ATOM     14  C   LIG    1        1.355   1.093   0.346  0.00  0.00    +0.237 C 
BRANCH  14  16
ATOM     15  C   LIG    1        0.121  -0.984  -0.467  0.00  0.00    -0.011 C 
ATOM     16  C   LIG    1        0.170   0.154   0.249  0.00  0.00    +0.116 C 
ATOM     17  F   LIG    1       -0.872   0.603   0.982  0.00  0.00    -0.209 F 
BRANCH  15  18
ATOM     18  C   LIG    1       -1.073  -1.912  -0.554  0.00  0.00    -0.056 C 
BRANCH  18  19
ATOM     19  N   LIG    1       -0.812  -3.254   0.136  0.00  0.00    +0.380 N 
ATOM     20  H   LIG    1       -0.022  -3.717  -0.290  0.00  0.00    -0.090 HD
ATOM     21  H   LIG    1       -0.622  -3.109   1.117  0.00  0.00    -0.090 HD
ATOM     22  H   LIG    1       -1.622  -3.851   0.049  0.00  0.00    -0.090 HD
ENDBRANCH  18  19
ENDBRANCH  15  18
ENDBRANCH  14  16
ENDBRANCH   1  14
TORSDOF 5
