REMARK  Name = DB17770
REMARK                            x       y       z     vdW  Elec       q    Type
REMARK                         _______ _______ _______ _____ _____    ______ ____
ROOT
ATOM      1  C   LIG    1       -0.536  -0.401  -1.273  0.00  0.00    +0.167 C 
ATOM      2  C   LIG    1        0.074   0.307  -0.025  0.00  0.00    +0.128 C 
ATOM      3  C   LIG    1       -0.542  -0.342   1.238  0.00  0.00    +0.059 C 
ATOM      4  C   LIG    1       -2.080  -0.493   1.187  0.00  0.00    +0.108 C 
ATOM      5  N   LIG    1       -2.533  -1.230  -0.003  0.00  0.00    -0.323 N 
ATOM      6  C   LIG    1       -2.079  -0.510  -1.204  0.00  0.00    +0.139 C 
ENDROOT
BRANCH   5   7
ATOM      7  C   LIG    1       -3.839  -1.699   0.005  0.00  0.00    +0.101 A 
ATOM      8  C   LIG    1       -4.064  -3.084   0.045  0.00  0.00    +0.148 A 
ATOM      9  F   LIG    1       -3.024  -3.951   0.075  0.00  0.00    -0.203 F 
ATOM     10  C   LIG    1       -5.364  -3.592   0.056  0.00  0.00    +0.060 A 
ATOM     11  C   LIG    1       -6.455  -2.725   0.027  0.00  0.00    +0.047 A 
ATOM     12 CL   LIG    1       -8.061  -3.357   0.043  0.00  0.00    -0.083 Cl
ATOM     13  C   LIG    1       -6.246  -1.348  -0.014  0.00  0.00    +0.060 A 
ATOM     14  C   LIG    1       -4.949  -0.834  -0.025  0.00  0.00    +0.148 A 
ATOM     15  F   LIG    1       -4.785   0.510  -0.062  0.00  0.00    -0.203 F 
ENDBRANCH   5   7
BRANCH   1  16
ATOM     16  O   LIG    1       -0.134   0.168  -2.507  0.00  0.00    -0.387 OA
ATOM     17  H   LIG    1        0.812   0.040  -2.607  0.00  0.00    +0.210 HD
ENDBRANCH   1  16
BRANCH   2  18
ATOM     18  O   LIG    1       -0.343   1.666  -0.062  0.00  0.00    -0.383 OA
ATOM     19  H   LIG    1       -0.196   2.053   0.804  0.00  0.00    +0.210 HD
ENDBRANCH   2  18
BRANCH   2  20
ATOM     20  C   LIG    1        1.621   0.277   0.012  0.00  0.00    +0.266 C 
BRANCH  20  21
ATOM     21  O   LIG    1        2.077  -1.073  -0.002  0.00  0.00    -0.489 OA
BRANCH  21  22
ATOM     22  C   LIG    1        3.432  -1.346  -0.011  0.00  0.00    +0.126 A 
ATOM     23  C   LIG    1        3.810  -2.697  -0.068  0.00  0.00    +0.019 A 
ATOM     24  C   LIG    1        2.806  -3.848  -0.133  0.00  0.00    +0.050 C 
ATOM     25  C   LIG    1        3.341  -5.120   0.581  0.00  0.00    +0.101 C 
ATOM     26  C   LIG    1        4.801  -5.467   0.192  0.00  0.00    +0.218 C 
ATOM     27  O   LIG    1        5.249  -6.611   0.170  0.00  0.00    -0.275 OA
ATOM     28  N   LIG    1        5.556  -4.382  -0.084  0.00  0.00    -0.283 N 
ATOM     29  H   LIG    1        6.517  -4.594  -0.310  0.00  0.00    +0.155 HD
ATOM     30  C   LIG    1        5.172  -3.036  -0.080  0.00  0.00    +0.076 A 
ATOM     31  C   LIG    1        6.152  -2.040  -0.047  0.00  0.00    +0.145 A 
ATOM     32  F   LIG    1        7.468  -2.361  -0.054  0.00  0.00    -0.204 F 
ATOM     33  C   LIG    1        5.776  -0.701   0.003  0.00  0.00    +0.044 A 
ATOM     34  C   LIG    1        4.427  -0.354   0.024  0.00  0.00    +0.049 A 
ENDBRANCH  21  22
ENDBRANCH  20  21
ENDBRANCH   2  20
TORSDOF 6
