REMARK  Name = DB17094
REMARK                            x       y       z     vdW  Elec       q    Type
REMARK                         _______ _______ _______ _____ _____    ______ ____
ROOT
ATOM      1  C   LIG    1       -3.033  -5.670  -0.049  0.00  0.00    +0.215 A 
ATOM      2  C   LIG    1       -1.718  -5.191  -0.056  0.00  0.00    +0.067 A 
ATOM      3  C   LIG    1       -1.494  -3.812   0.004  0.00  0.00    +0.015 A 
ATOM      4  C   LIG    1       -2.593  -2.946   0.069  0.00  0.00    +0.028 A 
ATOM      5  C   LIG    1       -2.758  -1.441   0.137  0.00  0.00    +0.141 C 
ATOM      6  O   LIG    1       -4.170  -1.250   0.187  0.00  0.00    -0.449 OA
ATOM      7  C   LIG    1       -4.856  -2.419   0.145  0.00  0.00    +0.359 C 
ATOM      8  O   LIG    1       -6.085  -2.470   0.170  0.00  0.00    -0.243 OA
ATOM      9  C   LIG    1       -2.142  -0.810   1.416  0.00  0.00    +0.054 C 
ATOM     10  C   LIG    1       -0.597  -0.758   1.392  0.00  0.00    +0.017 C 
ATOM     11  C   LIG    1       -0.118  -0.018   0.116  0.00  0.00    +0.075 C 
ATOM     12  C   LIG    1       -0.676  -0.657  -1.187  0.00  0.00    +0.017 C 
ATOM     13  C   LIG    1       -2.220  -0.706  -1.121  0.00  0.00    +0.054 C 
ATOM     14  C   LIG    1       -3.859  -3.501   0.071  0.00  0.00    +0.158 A 
ATOM     15  N   LIG    1       -4.112  -4.833   0.014  0.00  0.00    -0.206 NA
ENDROOT
BRANCH  11  16
ATOM     16  C   LIG    1        1.435   0.008   0.101  0.00  0.00    +0.218 C 
ATOM     17  N   LIG    1        2.106   1.059   0.652  0.00  0.00    -0.306 N 
ATOM     18  C   LIG    1        3.570   1.150   0.609  0.00  0.00    +0.132 C 
ATOM     19  O   LIG    1        2.030  -0.943  -0.414  0.00  0.00    -0.275 OA
BRANCH  17  20
ATOM     20  C   LIG    1        1.465   2.229   1.266  0.00  0.00    +0.089 C 
BRANCH  20  21
ATOM     21  C   LIG    1        1.095   3.320   0.236  0.00  0.00    -0.060 C 
BRANCH  21  22
ATOM     22  N   LIG    1        0.138   4.366   0.856  0.00  0.00    +0.381 N 
ATOM     23  H   LIG    1        0.483   4.618   1.772  0.00  0.00    -0.082 HD
ATOM     24  C   LIG    1       -1.297   3.799   1.010  0.00  0.00    -0.079 C 
ATOM     25  C   LIG    1       -2.196   4.865   1.663  0.00  0.00    -0.019 C 
ATOM     26  C   LIG    1       -2.193   6.186   0.875  0.00  0.00    -0.004 C 
ATOM     27  C   LIG    1       -0.763   6.708   0.653  0.00  0.00    -0.019 C 
ATOM     28  C   LIG    1        0.139   5.651  -0.008  0.00  0.00    -0.079 C 
ENDBRANCH  21  22
ENDBRANCH  20  21
ENDBRANCH  17  20
ENDBRANCH  11  16
BRANCH   1  30
ATOM     29  C   LIG    1       -4.565  -7.554  -0.106  0.00  0.00    +0.279 C 
ATOM     30  O   LIG    1       -3.235  -7.037  -0.110  0.00  0.00    -0.480 OA
ENDBRANCH   1  30
TORSDOF 5
