REMARK  Name = DB17507
REMARK                            x       y       z     vdW  Elec       q    Type
REMARK                         _______ _______ _______ _____ _____    ______ ____
ROOT
ATOM      1  S   LIG    1       -1.669   1.835   0.153  0.00  0.00    -0.017 S 
ATOM      2  C   LIG    1       -0.475   0.768   0.670  0.00  0.00    +0.153 C 
ENDROOT
BRANCH   2   3
ATOM      3  N   LIG    1        0.733   1.223   1.140  0.00  0.00    -0.308 N 
ATOM      4  C   LIG    1        1.578   2.139   0.370  0.00  0.00    +0.126 C 
ATOM      5  C   LIG    1        2.826   1.356  -0.098  0.00  0.00    +0.125 C 
ATOM      6  N   LIG    1        3.541   0.559   0.928  0.00  0.00    -0.312 N 
ATOM      7  C   LIG    1        2.628  -0.152   1.849  0.00  0.00    +0.125 C 
ATOM      8  C   LIG    1        1.374   0.622   2.313  0.00  0.00    +0.126 C 
BRANCH   6   9
ATOM      9  C   LIG    1        4.858   0.121   0.718  0.00  0.00    +0.121 A 
ATOM     10  N   LIG    1        5.567   0.731  -0.279  0.00  0.00    -0.240 NA
ATOM     11  C   LIG    1        6.849   0.355  -0.514  0.00  0.00    +0.113 A 
ATOM     12  C   LIG    1        7.489  -0.637   0.223  0.00  0.00    +0.020 A 
ATOM     13  C   LIG    1        6.777  -1.265   1.242  0.00  0.00    +0.005 A 
ATOM     14  C   LIG    1        5.457  -0.888   1.496  0.00  0.00    +0.043 A 
ENDBRANCH   6   9
ENDBRANCH   2   3
BRANCH   2  15
ATOM     15  N   LIG    1       -0.582  -0.597   0.640  0.00  0.00    -0.218 N 
ATOM     16  H   LIG    1        0.209  -1.160   0.917  0.00  0.00    +0.176 HD
BRANCH  15  17
ATOM     17  N   LIG    1       -1.661  -1.303   0.224  0.00  0.00    -0.183 NA
ATOM     18  C   LIG    1       -1.533  -2.581   0.213  0.00  0.00    +0.085 C 
ATOM     19  C   LIG    1       -2.726  -3.402  -0.176  0.00  0.00    +0.090 A 
ATOM     20  N   LIG    1       -3.787  -2.739  -0.732  0.00  0.00    -0.253 NA
ATOM     21  C   LIG    1       -4.877  -3.437  -1.130  0.00  0.00    +0.111 A 
ATOM     22  C   LIG    1       -4.968  -4.818  -1.003  0.00  0.00    +0.020 A 
ATOM     23  C   LIG    1       -3.894  -5.500  -0.436  0.00  0.00    +0.007 A 
ATOM     24  C   LIG    1       -2.756  -4.806  -0.004  0.00  0.00    -0.020 A 
ATOM     25  C   LIG    1       -1.584  -5.539   0.630  0.00  0.00    +0.038 C 
ATOM     26  C   LIG    1       -0.277  -4.843   0.232  0.00  0.00    +0.011 C 
ATOM     27  C   LIG    1       -0.261  -3.359   0.655  0.00  0.00    +0.059 C 
ENDBRANCH  15  17
ENDBRANCH   2  15
TORSDOF 4
