REMARK  Name = DB17041
REMARK                            x       y       z     vdW  Elec       q    Type
REMARK                         _______ _______ _______ _____ _____    ______ ____
ROOT
ATOM      1  C   LIG    1       -1.769   3.424  -0.746  0.00  0.00    +0.154 C 
ATOM      2  N   LIG    1       -2.735   2.364  -0.395  0.00  0.00    -0.295 N 
ATOM      3  C   LIG    1       -4.065   2.709  -0.305  0.00  0.00    +0.260 A 
ATOM      4  O   LIG    1       -4.493   3.852  -0.494  0.00  0.00    -0.267 OA
ATOM      5  C   LIG    1       -4.968   1.599   0.040  0.00  0.00    +0.050 A 
ATOM      6  C   LIG    1       -4.521   0.340   0.257  0.00  0.00    +0.027 A 
ATOM      7  C   LIG    1       -3.098   0.016   0.155  0.00  0.00    +0.037 A 
ATOM      8  C   LIG    1       -2.563  -1.256   0.360  0.00  0.00    +0.126 A 
ATOM      9  N   LIG    1       -1.232  -1.500   0.246  0.00  0.00    -0.222 NA
ATOM     10  C   LIG    1       -0.433  -0.444  -0.072  0.00  0.00    +0.221 A 
ATOM     11  N   LIG    1       -0.872   0.824  -0.292  0.00  0.00    -0.196 NA
ATOM     12  C   LIG    1       -2.214   1.051  -0.175  0.00  0.00    +0.148 A 
ENDROOT
BRANCH   5  13
ATOM     13  C   LIG    1       -6.423   1.872   0.151  0.00  0.00    +0.024 A 
ATOM     14  C   LIG    1       -7.259   1.772  -0.977  0.00  0.00    +0.050 A 
ATOM     15 CL   LIG    1       -6.634   1.333  -2.532  0.00  0.00    -0.083 Cl
ATOM     16  C   LIG    1       -8.626   2.029  -0.865  0.00  0.00    +0.021 A 
ATOM     17  C   LIG    1       -9.177   2.384   0.363  0.00  0.00    +0.003 A 
ATOM     18  C   LIG    1       -8.360   2.483   1.487  0.00  0.00    +0.021 A 
ATOM     19  C   LIG    1       -6.991   2.231   1.388  0.00  0.00    +0.050 A 
ATOM     20 CL   LIG    1       -6.028   2.371   2.820  0.00  0.00    -0.083 Cl
ENDBRANCH   5  13
BRANCH  10  21
ATOM     21  N   LIG    1        0.947  -0.634  -0.236  0.00  0.00    -0.284 N 
ATOM     22  H   LIG    1        1.435   0.191  -0.553  0.00  0.00    +0.155 HD
BRANCH  21  23
ATOM     23  C   LIG    1        1.774  -1.754  -0.042  0.00  0.00    +0.034 A 
ATOM     24  C   LIG    1        2.932  -1.849  -0.812  0.00  0.00    +0.025 A 
ATOM     25  C   LIG    1        3.789  -2.935  -0.660  0.00  0.00    +0.025 A 
ATOM     26  C   LIG    1        3.513  -3.945   0.272  0.00  0.00    +0.030 A 
ATOM     27  C   LIG    1        2.357  -3.828   1.058  0.00  0.00    +0.025 A 
ATOM     28  C   LIG    1        1.497  -2.743   0.906  0.00  0.00    +0.025 A 
BRANCH  26  29
ATOM     29  N   LIG    1        4.384  -5.027   0.397  0.00  0.00    -0.326 N 
ATOM     30  C   LIG    1        4.333  -5.923   1.567  0.00  0.00    +0.133 C 
ATOM     31  C   LIG    1        5.585  -6.817   1.700  0.00  0.00    +0.178 C 
ATOM     32  O   LIG    1        5.784  -7.554   0.503  0.00  0.00    -0.377 OA
ATOM     33  C   LIG    1        5.970  -6.702  -0.617  0.00  0.00    +0.178 C 
ATOM     34  C   LIG    1        4.730  -5.802  -0.810  0.00  0.00    +0.133 C 
ENDBRANCH  26  29
ENDBRANCH  21  23
ENDBRANCH  10  21
TORSDOF 4
