REMARK  Name = DB17965
REMARK                            x       y       z     vdW  Elec       q    Type
REMARK                         _______ _______ _______ _____ _____    ______ ____
ROOT
ATOM      1  C   LIG    1        1.526   0.367  -0.047  0.00  0.00    +0.121 A 
ATOM      2  C   LIG    1        2.263  -0.805   0.154  0.00  0.00    +0.058 A 
ATOM      3  C   LIG    1        3.656  -0.781   0.075  0.00  0.00    +0.033 A 
ATOM      4  C   LIG    1        4.629  -1.884   0.243  0.00  0.00    +0.195 C 
ATOM      5  O   LIG    1        4.400  -3.067   0.493  0.00  0.00    -0.287 OA
ATOM      6  C   LIG    1        5.942  -1.232   0.040  0.00  0.00    +0.033 A 
ATOM      7  C   LIG    1        7.224  -1.783   0.078  0.00  0.00    +0.058 A 
ATOM      8  C   LIG    1        8.344  -0.975  -0.143  0.00  0.00    +0.121 A 
ATOM      9  C   LIG    1        8.155   0.395  -0.406  0.00  0.00    +0.046 A 
ATOM     10  C   LIG    1        6.871   0.942  -0.444  0.00  0.00    +0.013 A 
ATOM     11  C   LIG    1        5.765   0.123  -0.220  0.00  0.00    -0.006 A 
ATOM     12  C   LIG    1        4.326   0.406  -0.200  0.00  0.00    -0.006 A 
ATOM     13  C   LIG    1        3.608   1.584  -0.400  0.00  0.00    +0.013 A 
ATOM     14  C   LIG    1        2.213   1.564  -0.326  0.00  0.00    +0.046 A 
ENDROOT
BRANCH   1  15
ATOM     15  O   LIG    1        0.152   0.258   0.044  0.00  0.00    -0.494 OA
BRANCH  15  16
ATOM     16  C   LIG    1       -0.659   1.408  -0.188  0.00  0.00    +0.210 C 
BRANCH  16  17
ATOM     17  C   LIG    1       -2.149   1.041  -0.043  0.00  0.00    -0.037 C 
BRANCH  17  18
ATOM     18  N   LIG    1       -2.449   0.272   1.272  0.00  0.00    +0.382 N 
ATOM     19  H   LIG    1       -1.861  -0.549   1.239  0.00  0.00    -0.082 HD
BRANCH  18  21
ATOM     20  C   LIG    1       -2.833   2.330   2.776  0.00  0.00    -0.017 C 
ATOM     21  C   LIG    1       -2.036   1.030   2.564  0.00  0.00    -0.082 C 
ENDBRANCH  18  21
BRANCH  18  22
ATOM     22  C   LIG    1       -3.906  -0.260   1.270  0.00  0.00    -0.082 C 
ATOM     23  C   LIG    1       -4.177  -1.209   2.450  0.00  0.00    -0.017 C 
ENDBRANCH  18  22
ENDBRANCH  17  18
ENDBRANCH  16  17
ENDBRANCH  15  16
ENDBRANCH   1  15
BRANCH   8  24
ATOM     24  O   LIG    1        9.576  -1.599  -0.091  0.00  0.00    -0.494 OA
BRANCH  24  25
ATOM     25  C   LIG    1       10.763  -0.815  -0.202  0.00  0.00    +0.210 C 
BRANCH  25  26
ATOM     26  C   LIG    1       12.007  -1.704   0.000  0.00  0.00    -0.037 C 
BRANCH  26  27
ATOM     27  N   LIG    1       11.869  -2.634   1.237  0.00  0.00    +0.382 N 
ATOM     28  H   LIG    1       10.952  -3.054   1.177  0.00  0.00    -0.082 HD
BRANCH  27  29
ATOM     29  C   LIG    1       12.898  -3.794   1.212  0.00  0.00    -0.082 C 
ATOM     30  C   LIG    1       12.518  -4.856   0.166  0.00  0.00    -0.017 C 
ENDBRANCH  27  29
BRANCH  27  31
ATOM     31  C   LIG    1       11.906  -1.849   2.573  0.00  0.00    -0.082 C 
ATOM     32  C   LIG    1       11.236  -2.649   3.703  0.00  0.00    -0.017 C 
ENDBRANCH  27  31
ENDBRANCH  26  27
ENDBRANCH  25  26
ENDBRANCH  24  25
ENDBRANCH   8  24
TORSDOF 12
