REMARK  Name = DB17097
REMARK                            x       y       z     vdW  Elec       q    Type
REMARK                         _______ _______ _______ _____ _____    ______ ____
ROOT
ATOM      1  C   LIG    1        1.488   0.039  -0.099  0.00  0.00    +0.221 A 
ATOM      2  N   LIG    1        2.126  -1.159  -0.065  0.00  0.00    -0.181 NA
ATOM      3  C   LIG    1        3.482  -1.102  -0.016  0.00  0.00    +0.221 A 
ATOM      4  N   LIG    1        4.203   0.052  -0.001  0.00  0.00    -0.193 NA
ATOM      5  C   LIG    1        3.478   1.207  -0.036  0.00  0.00    +0.185 A 
ATOM      6  N   LIG    1        2.117   1.247  -0.093  0.00  0.00    -0.193 NA
ENDROOT
BRANCH   5   7
ATOM      7  C   LIG    1        4.211   2.520  -0.001  0.00  0.00    +0.110 A 
ATOM      8  N   LIG    1        5.566   2.470   0.161  0.00  0.00    -0.232 NA
ATOM      9  C   LIG    1        6.277   3.624   0.214  0.00  0.00    +0.130 A 
ATOM     10 CL   LIG    1        7.986   3.531   0.427  0.00  0.00    -0.062 Cl
ATOM     11  C   LIG    1        5.671   4.876   0.104  0.00  0.00    +0.040 A 
ATOM     12  C   LIG    1        4.289   4.937  -0.063  0.00  0.00    +0.005 A 
ATOM     13  C   LIG    1        3.549   3.755  -0.115  0.00  0.00    +0.031 A 
ENDBRANCH   5   7
BRANCH   1  14
ATOM     14  N   LIG    1        0.087  -0.023  -0.141  0.00  0.00    -0.302 N 
ATOM     15  H   LIG    1       -0.354  -0.932  -0.154  0.00  0.00    +0.149 HD
BRANCH  14  17
ATOM     16  C   LIG    1       -0.845   1.855   1.207  0.00  0.00    +0.037 C 
ATOM     17  C   LIG    1       -0.771   1.164  -0.172  0.00  0.00    +0.174 C 
BRANCH  17  18
ATOM     18  C   LIG    1       -2.177   0.836  -0.730  0.00  0.00    +0.407 C 
ATOM     19  F   LIG    1       -2.919   1.937  -0.849  0.00  0.00    -0.169 F 
ATOM     20  F   LIG    1       -2.843  -0.007   0.062  0.00  0.00    -0.169 F 
ATOM     21  F   LIG    1       -2.107   0.280  -1.940  0.00  0.00    -0.169 F 
ENDBRANCH  17  18
ENDBRANCH  14  17
ENDBRANCH   1  14
BRANCH   3  22
ATOM     22  N   LIG    1        4.138  -2.342   0.019  0.00  0.00    -0.302 N 
ATOM     23  H   LIG    1        3.580  -3.183  -0.003  0.00  0.00    +0.149 HD
BRANCH  22  24
ATOM     24  C   LIG    1        5.596  -2.482   0.083  0.00  0.00    +0.174 C 
ATOM     25  C   LIG    1        6.045  -3.745  -0.676  0.00  0.00    +0.037 C 
BRANCH  24  26
ATOM     26  C   LIG    1        6.129  -2.458   1.538  0.00  0.00    +0.407 C 
ATOM     27  F   LIG    1        7.461  -2.520   1.562  0.00  0.00    -0.169 F 
ATOM     28  F   LIG    1        5.673  -3.490   2.250  0.00  0.00    -0.169 F 
ATOM     29  F   LIG    1        5.782  -1.343   2.184  0.00  0.00    -0.169 F 
ENDBRANCH  24  26
ENDBRANCH  22  24
ENDBRANCH   3  22
TORSDOF 7
