REMARK  Name = DB17621
REMARK                            x       y       z     vdW  Elec       q    Type
REMARK                         _______ _______ _______ _____ _____    ______ ____
ROOT
ATOM      1  C   LIG    1        1.456   0.257  -0.049  0.00  0.00    +0.033 C 
ENDROOT
BRANCH   1   2
ATOM      2  C   LIG    1        2.020   0.854   1.237  0.00  0.00    -0.010 A 
ATOM      3  C   LIG    1        2.141   0.070   2.392  0.00  0.00    +0.127 A 
ATOM      4  F   LIG    1        1.761  -1.229   2.380  0.00  0.00    -0.205 F 
ATOM      5  C   LIG    1        2.656   0.624   3.564  0.00  0.00    +0.042 A 
ATOM      6  C   LIG    1        3.051   1.961   3.592  0.00  0.00    +0.048 A 
ATOM      7  C   LIG    1        2.931   2.748   2.446  0.00  0.00    +0.117 A 
ATOM      8  C   LIG    1        2.420   2.195   1.271  0.00  0.00    +0.051 A 
BRANCH   7   9
ATOM      9  O   LIG    1        3.314   4.063   2.476  0.00  0.00    -0.507 OA
ATOM     10  H   LIG    1        3.163   4.518   1.645  0.00  0.00    +0.292 HD
ENDBRANCH   7   9
ENDBRANCH   1   2
BRANCH   1  11
ATOM     11  CA  LIG    1       -0.080   0.037  -0.021  0.00  0.00    +0.040 C 
BRANCH  11  12
ATOM     12  N   LIG    1       -0.457  -0.914  -1.170  0.00  0.00    +0.387 N 
ATOM     13  H1  LIG    1       -0.202  -0.504  -2.058  0.00  0.00    -0.089 HD
ATOM     14  H2  LIG    1        0.034  -1.791  -1.066  0.00  0.00    -0.089 HD
ATOM     15  H3  LIG    1       -1.450  -1.097  -1.158  0.00  0.00    -0.089 HD
ENDBRANCH  11  12
BRANCH  11  16
ATOM     16  C   LIG    1       -0.876   1.361  -0.187  0.00  0.00    +0.290 C 
ATOM     17  OXT LIG    1       -1.006   2.057   0.844  0.00  0.00    -0.253 OA
BRANCH  16  18
ATOM     18  O   LIG    1       -1.323   1.692  -1.311  0.00  0.00    -0.482 OA
ATOM     19  H   LIG    1       -1.802   2.491  -1.408  0.00  0.00    +0.295 HD
ENDBRANCH  16  18
ENDBRANCH  11  16
ENDBRANCH   1  11
TORSDOF 6
