REMARK  Name = DB17736
REMARK                            x       y       z     vdW  Elec       q    Type
REMARK                         _______ _______ _______ _____ _____    ______ ____
ROOT
ATOM      1  C   LIG    1        2.045  -1.406  -0.066  0.00  0.00    -0.010 A 
ATOM      2  C   LIG    1        1.580  -2.227   0.964  0.00  0.00    +0.007 A 
ATOM      3  C   LIG    1        1.969  -3.563   1.019  0.00  0.00    +0.007 A 
ATOM      4  C   LIG    1        2.824  -4.080   0.044  0.00  0.00    -0.010 A 
ATOM      5  C   LIG    1        3.295  -3.259  -0.982  0.00  0.00    +0.007 A 
ATOM      6  C   LIG    1        2.907  -1.923  -1.037  0.00  0.00    +0.007 A 
ENDROOT
BRANCH   1   7
ATOM      7  C   LIG    1        1.622   0.055  -0.119  0.00  0.00    +0.264 C 
BRANCH   7   8
ATOM      8  O   LIG    1        0.200   0.139  -0.062  0.00  0.00    -0.486 OA
BRANCH   8  13
ATOM      9  C   LIG    1       -1.803   3.838   0.025  0.00  0.00    +0.122 A 
ATOM     10  C   LIG    1       -2.493   2.626   0.053  0.00  0.00    +0.069 A 
ATOM     11  C   LIG    1       -1.811   1.409   0.022  0.00  0.00    +0.086 A 
ATOM     12 CL   LIG    1       -2.722  -0.060   0.062  0.00  0.00    -0.080 Cl
ATOM     13  C   LIG    1       -0.412   1.379  -0.038  0.00  0.00    +0.139 A 
ATOM     14  C   LIG    1        0.285   2.599  -0.069  0.00  0.00    +0.051 A 
ATOM     15  C   LIG    1       -0.401   3.812  -0.037  0.00  0.00    +0.049 A 
BRANCH   9  17
ATOM     16  C   LIG    1       -1.909   6.255   0.051  0.00  0.00    +0.277 C 
ATOM     17  O   LIG    1       -2.564   4.991   0.063  0.00  0.00    -0.495 OA
ENDBRANCH   9  17
ENDBRANCH   8  13
ENDBRANCH   7   8
ENDBRANCH   1   7
BRANCH   4  18
ATOM     18  C   LIG    1        3.254  -5.535   0.102  0.00  0.00    +0.264 C 
BRANCH  18  19
ATOM     19  O   LIG    1        4.528  -5.615   0.731  0.00  0.00    -0.484 OA
BRANCH  19  20
ATOM     20  C   LIG    1        5.068  -6.878   0.754  0.00  0.00    +0.157 A 
ATOM     21  C   LIG    1        5.905  -7.303  -0.287  0.00  0.00    +0.084 A 
ATOM     22 CL   LIG    1        6.266  -6.257  -1.615  0.00  0.00    -0.080 Cl
ATOM     23  C   LIG    1        6.458  -8.585  -0.259  0.00  0.00    +0.024 A 
ATOM     24  C   LIG    1        6.186  -9.442   0.805  0.00  0.00    +0.003 A 
ATOM     25  C   LIG    1        5.363  -9.019   1.849  0.00  0.00    +0.024 A 
ATOM     26  C   LIG    1        4.806  -7.739   1.829  0.00  0.00    +0.084 A 
ATOM     27 CL   LIG    1        3.800  -7.237   3.142  0.00  0.00    -0.080 Cl
ENDBRANCH  19  20
ENDBRANCH  18  19
ENDBRANCH   4  18
TORSDOF 7
