REMARK  Name = DB17570
REMARK                            x       y       z     vdW  Elec       q    Type
REMARK                         _______ _______ _______ _____ _____    ______ ____
ROOT
ATOM      1  N   LIG    1        0.398   1.774   0.327  0.00  0.00    -0.281 N 
ATOM      2  H   LIG    1        0.637   1.069  -0.356  0.00  0.00    +0.155 HD
ENDROOT
BRANCH   1   7
ATOM      3  C   LIG    1       -3.652   1.413   1.530  0.00  0.00    +0.075 A 
ATOM      4  C   LIG    1       -2.840   2.406   2.096  0.00  0.00    +0.137 A 
ATOM      5  F   LIG    1       -3.317   3.252   3.040  0.00  0.00    -0.205 F 
ATOM      6  C   LIG    1       -1.509   2.535   1.706  0.00  0.00    +0.066 A 
ATOM      7  C   LIG    1       -0.947   1.682   0.748  0.00  0.00    +0.079 A 
ATOM      8  C   LIG    1       -1.747   0.678   0.172  0.00  0.00    +0.142 A 
ATOM      9  C   LIG    1       -3.090   0.556   0.572  0.00  0.00    +0.063 A 
BRANCH   3  12
ATOM     10  N   LIG    1       -5.568  -0.005   1.980  0.00  0.00    -0.309 N 
ATOM     11  H   LIG    1       -4.977  -0.736   1.612  0.00  0.00    +0.149 HD
ATOM     12  C   LIG    1       -5.096   1.257   1.953  0.00  0.00    +0.247 C 
ATOM     13  O   LIG    1       -5.775   2.236   2.266  0.00  0.00    -0.270 OA
BRANCH  10  19
ATOM     14  C   LIG    1      -10.320  -2.669   4.059  0.00  0.00    -0.096 C 
ATOM     15  N   LIG    1       -8.921  -2.166   3.651  0.00  0.00    +0.378 N 
ATOM     16  H   LIG    1       -8.223  -2.779   4.050  0.00  0.00    -0.082 HD
ATOM     17  C   LIG    1       -8.776  -2.195   2.115  0.00  0.00    -0.077 C 
ATOM     18  C   LIG    1       -7.350  -1.759   1.734  0.00  0.00    +0.003 C 
ATOM     19  C   LIG    1       -6.933  -0.399   2.337  0.00  0.00    +0.070 C 
ATOM     20  C   LIG    1       -7.265  -0.287   3.845  0.00  0.00    +0.003 C 
ATOM     21  C   LIG    1       -8.691  -0.743   4.201  0.00  0.00    -0.077 C 
ENDBRANCH  10  19
ENDBRANCH   3  12
BRANCH   8  22
ATOM     22  O   LIG    1       -1.163  -0.153  -0.773  0.00  0.00    -0.493 OA
ATOM     23  C   LIG    1       -1.931  -1.183  -1.386  0.00  0.00    +0.277 C 
ENDBRANCH   8  22
ENDBRANCH   1   7
BRANCH   1  24
ATOM     24  C   LIG    1        1.490   2.602   0.635  0.00  0.00    +0.223 A 
ATOM     25  N   LIG    1        2.636   2.295  -0.024  0.00  0.00    -0.178 NA
ATOM     26  C   LIG    1        3.727   3.064   0.232  0.00  0.00    +0.237 A 
ATOM     27  C   LIG    1        3.700   4.129   1.151  0.00  0.00    +0.135 A 
ATOM     28  C   LIG    1        2.470   4.364   1.777  0.00  0.00    +0.132 A 
ATOM     29  N   LIG    1        1.363   3.617   1.529  0.00  0.00    -0.222 NA
BRANCH  27  30
ATOM     30  C   LIG    1        4.937   4.961   1.489  0.00  0.00    +0.424 C 
ATOM     31  F   LIG    1        4.787   5.620   2.640  0.00  0.00    -0.166 F 
ATOM     32  F   LIG    1        5.149   5.853   0.523  0.00  0.00    -0.166 F 
ATOM     33  F   LIG    1        6.016   4.185   1.605  0.00  0.00    -0.166 F 
ENDBRANCH  27  30
BRANCH  26  34
ATOM     34  O   LIG    1        4.858   2.699  -0.460  0.00  0.00    -0.437 OA
BRANCH  34  35
ATOM     35  C   LIG    1        5.332   3.494  -1.484  0.00  0.00    +0.143 A 
ATOM     36  C   LIG    1        6.707   3.467  -1.751  0.00  0.00    +0.084 A 
ATOM     37  C   LIG    1        7.801   2.704  -1.067  0.00  0.00    +0.251 C 
ATOM     38  N   LIG    1        8.926   3.058  -1.727  0.00  0.00    -0.296 N 
ATOM     39  C   LIG    1       10.249   2.546  -1.384  0.00  0.00    +0.132 C 
ATOM     40  C   LIG    1        8.729   4.004  -2.817  0.00  0.00    +0.143 C 
ATOM     41  O   LIG    1        7.704   1.928  -0.115  0.00  0.00    -0.270 OA
ATOM     42  C   LIG    1        7.249   4.228  -2.773  0.00  0.00    -0.014 A 
ATOM     43  C   LIG    1        6.428   5.033  -3.563  0.00  0.00    +0.006 A 
ATOM     44  C   LIG    1        5.054   5.064  -3.318  0.00  0.00    +0.004 A 
ATOM     45  C   LIG    1        4.506   4.297  -2.288  0.00  0.00    +0.047 A 
ENDBRANCH  34  35
ENDBRANCH  26  34
ENDBRANCH   1  24
TORSDOF 8
