REMARK  Name = DB17105
REMARK                            x       y       z     vdW  Elec       q    Type
REMARK                         _______ _______ _______ _____ _____    ______ ____
ROOT
ATOM      1  F   LIG    1        0.262  -2.174   0.502  0.00  0.00    -0.205 F 
ATOM      2  C   LIG    1       -0.576  -1.117   0.382  0.00  0.00    +0.135 A 
ATOM      3  C   LIG    1       -1.946  -1.365   0.288  0.00  0.00    +0.039 A 
ATOM      4  C   LIG    1       -2.840  -0.314   0.098  0.00  0.00    +0.007 A 
ATOM      5  C   LIG    1       -2.369   0.997  -0.014  0.00  0.00    -0.041 A 
ATOM      6  C   LIG    1       -0.996   1.244   0.084  0.00  0.00    +0.020 A 
ATOM      7  C   LIG    1       -0.089   0.200   0.312  0.00  0.00    +0.072 A 
ENDROOT
BRANCH   7   8
ATOM      8  C   LIG    1        1.387   0.512   0.369  0.00  0.00    +0.249 C 
ATOM      9  N   LIG    1        2.104   0.006   1.392  0.00  0.00    -0.297 N 
ATOM     10  C   LIG    1        3.550   0.116   1.705  0.00  0.00    +0.111 C 
ATOM     11  C   LIG    1        3.189  -0.434   3.097  0.00  0.00    +0.007 C 
ATOM     12  C   LIG    1        1.730  -0.672   2.660  0.00  0.00    +0.111 C 
ATOM     13  O   LIG    1        1.893   1.248  -0.479  0.00  0.00    -0.270 OA
BRANCH  11  14
ATOM     14  C   LIG    1        3.364   0.601   4.228  0.00  0.00    -0.076 C 
BRANCH  14  15
ATOM     15  N   LIG    1        2.814   0.037   5.548  0.00  0.00    +0.381 N 
ATOM     16  H   LIG    1        3.332  -0.794   5.796  0.00  0.00    -0.086 HD
ATOM     17  H   LIG    1        1.848  -0.228   5.415  0.00  0.00    -0.086 HD
BRANCH  15  18
ATOM     18  C   LIG    1        2.895   1.042   6.705  0.00  0.00    -0.072 C 
ATOM     19  C   LIG    1        1.752   2.004   6.927  0.00  0.00    -0.017 C 
ATOM     20  C   LIG    1        1.981   0.864   7.893  0.00  0.00    -0.017 C 
ENDBRANCH  15  18
ENDBRANCH  14  15
ENDBRANCH  11  14
ENDBRANCH   7   8
BRANCH   5  21
ATOM     21  C   LIG    1       -3.345   2.152  -0.242  0.00  0.00    +0.093 C 
BRANCH  21  22
ATOM     22  C   LIG    1       -3.526   2.646  -1.689  0.00  0.00    +0.074 A 
ATOM     23  C   LIG    1       -4.436   3.782  -1.960  0.00  0.00    +0.011 A 
ATOM     24  C   LIG    1       -5.170   4.445  -0.965  0.00  0.00    +0.010 A 
ATOM     25  C   LIG    1       -6.006   5.511  -1.299  0.00  0.00    +0.001 A 
ATOM     26  C   LIG    1       -6.121   5.925  -2.625  0.00  0.00    +0.001 A 
ATOM     27  C   LIG    1       -5.401   5.276  -3.627  0.00  0.00    +0.014 A 
ATOM     28  C   LIG    1       -4.558   4.205  -3.303  0.00  0.00    +0.050 A 
ATOM     29  C   LIG    1       -3.785   3.513  -4.415  0.00  0.00    +0.272 A 
ATOM     30  O   LIG    1       -3.817   3.799  -5.612  0.00  0.00    -0.266 OA
ATOM     31  N   LIG    1       -3.019   2.494  -3.930  0.00  0.00    -0.242 N 
ATOM     32  H   LIG    1       -2.471   1.975  -4.601  0.00  0.00    +0.192 HD
ATOM     33  N   LIG    1       -2.876   2.055  -2.627  0.00  0.00    -0.175 NA
ENDBRANCH  21  22
ENDBRANCH   5  21
TORSDOF 6
