REMARK  Name = DB17560
REMARK                            x       y       z     vdW  Elec       q    Type
REMARK                         _______ _______ _______ _____ _____    ______ ____
ROOT
ATOM      1  C   LIG    1        3.605  -0.756  -0.020  0.00  0.00    +0.072 A 
ATOM      2  C   LIG    1        4.541  -1.755   0.301  0.00  0.00    +0.136 A 
ATOM      3  F   LIG    1        4.146  -2.996   0.674  0.00  0.00    -0.205 F 
ATOM      4  C   LIG    1        5.908  -1.480   0.255  0.00  0.00    +0.049 A 
ATOM      5  C   LIG    1        6.383  -0.213  -0.102  0.00  0.00    +0.006 A 
ATOM      6  C   LIG    1        5.448   0.781  -0.414  0.00  0.00    +0.011 A 
ATOM      7  C   LIG    1        4.080   0.516  -0.376  0.00  0.00    +0.016 A 
ENDROOT
BRANCH   5   8
ATOM      8  C   LIG    1        7.846   0.079  -0.129  0.00  0.00    +0.111 A 
ATOM      9  C   LIG    1        8.811  -0.715  -0.780  0.00  0.00    +0.142 A 
ATOM     10  N   LIG    1       10.131  -0.393  -0.743  0.00  0.00    -0.237 NA
ATOM     11  C   LIG    1       10.493   0.723  -0.061  0.00  0.00    +0.136 A 
ATOM     12  C   LIG    1        9.544   1.524   0.580  0.00  0.00    +0.063 A 
ATOM     13  N   LIG    1        8.222   1.204   0.542  0.00  0.00    -0.246 NA
BRANCH  12  14
ATOM     14  C   LIG    1        9.934   2.784   1.355  0.00  0.00    +0.042 C 
ATOM     15  C   LIG    1        9.633   2.650   2.870  0.00  0.00    +0.049 C 
ATOM     16  C   LIG    1        9.943   3.938   3.664  0.00  0.00    +0.195 C 
ATOM     17  F   LIG    1        9.454   3.810   4.900  0.00  0.00    -0.243 F 
ATOM     18  C   LIG    1        9.354   5.212   3.015  0.00  0.00    +0.148 C 
ATOM     19  C   LIG    1        9.720   5.328   1.523  0.00  0.00    +0.035 C 
ATOM     20  C   LIG    1        9.326   4.064   0.736  0.00  0.00    +0.012 C 
BRANCH  18  21
ATOM     21  O   LIG    1        9.737   6.379   3.716  0.00  0.00    -0.389 OA
ATOM     22  H   LIG    1        9.724   6.186   4.656  0.00  0.00    +0.210 HD
ENDBRANCH  18  21
ENDBRANCH  12  14
BRANCH   9  23
ATOM     23  N   LIG    1        8.474  -1.852  -1.516  0.00  0.00    -0.341 N 
ATOM     24  H   LIG    1        9.203  -2.377  -1.978  0.00  0.00    +0.144 HD
ATOM     25  H   LIG    1        7.506  -2.128  -1.593  0.00  0.00    +0.144 HD
ENDBRANCH   9  23
ENDBRANCH   5   8
BRANCH   1  28
ATOM     26  N   LIG    1        1.352  -0.015   0.476  0.00  0.00    -0.306 N 
ATOM     27  H   LIG    1        1.802   0.864   0.687  0.00  0.00    +0.150 HD
ATOM     28  C   LIG    1        2.122  -1.034   0.046  0.00  0.00    +0.247 C 
ATOM     29  O   LIG    1        1.668  -2.138  -0.262  0.00  0.00    -0.270 OA
BRANCH  26  30
ATOM     30  C   LIG    1       -0.101  -0.076   0.700  0.00  0.00    +0.087 C 
BRANCH  30  31
ATOM     31  C   LIG    1       -0.511  -0.984   1.867  0.00  0.00    -0.025 A 
ATOM     32  C   LIG    1        0.289  -1.110   3.013  0.00  0.00    +0.020 A 
ATOM     33  C   LIG    1       -0.090  -1.960   4.052  0.00  0.00    +0.021 A 
ATOM     34 BR   LIG    1        1.009  -2.119   5.598  0.00  0.00    -0.050 Br
ATOM     35  C   LIG    1       -1.273  -2.693   3.957  0.00  0.00    +0.053 A 
ATOM     36  C   LIG    1       -2.074  -2.578   2.822  0.00  0.00    +0.125 A 
ATOM     37  F   LIG    1       -3.220  -3.290   2.728  0.00  0.00    -0.205 F 
ATOM     38  C   LIG    1       -1.694  -1.729   1.782  0.00  0.00    +0.043 A 
ENDBRANCH  30  31
BRANCH  30  39
ATOM     39  C   LIG    1       -0.694   1.338   0.899  0.00  0.00    -0.056 C 
BRANCH  39  41
ATOM     40  C   LIG    1       -1.157   3.584  -0.263  0.00  0.00    -0.100 C 
ATOM     41  N   LIG    1       -0.599   2.160  -0.400  0.00  0.00    +0.379 N 
ATOM     42  H   LIG    1        0.370   2.216  -0.682  0.00  0.00    -0.086 HD
ATOM     43  H   LIG    1       -1.105   1.679  -1.130  0.00  0.00    -0.086 HD
ENDBRANCH  39  41
ENDBRANCH  30  39
ENDBRANCH  26  30
ENDBRANCH   1  28
TORSDOF 9
