REMARK  Name = DB17057
REMARK                            x       y       z     vdW  Elec       q    Type
REMARK                         _______ _______ _______ _____ _____    ______ ____
ROOT
ATOM      1  C   LIG    1       -0.707   0.978  -0.003  0.00  0.00    +0.043 A 
ATOM      2  C   LIG    1       -2.092   0.930  -0.233  0.00  0.00    +0.024 A 
ATOM      3  C   LIG    1       -2.783  -0.276  -0.144  0.00  0.00    +0.002 A 
ATOM      4  C   LIG    1       -2.103  -1.445   0.183  0.00  0.00    +0.001 A 
ATOM      5  C   LIG    1       -0.732  -1.407   0.431  0.00  0.00    +0.012 A 
ATOM      6  C   LIG    1       -0.018  -0.203   0.354  0.00  0.00    +0.023 A 
ENDROOT
BRANCH   6   7
ATOM      7  C   LIG    1        1.455  -0.269   0.647  0.00  0.00    +0.092 A 
ATOM      8  N   LIG    1        2.078   0.672   1.335  0.00  0.00    -0.221 NA
ATOM      9  C   LIG    1        3.338   0.308   1.381  0.00  0.00    +0.178 A 
ATOM     10  S   LIG    1        4.807   0.972   2.064  0.00  0.00    -0.057 S 
ATOM     11  C   LIG    1        5.692  -0.415   1.448  0.00  0.00    +0.071 A 
ATOM     12  C   LIG    1        4.909  -1.317   0.753  0.00  0.00    +0.046 A 
ATOM     13  N   LIG    1        3.582  -0.889   0.739  0.00  0.00    -0.296 N 
ATOM     14  C   LIG    1        2.339  -1.281   0.271  0.00  0.00    +0.122 A 
BRANCH  12  15
ATOM     15  C   LIG    1        5.338  -2.615   0.075  0.00  0.00    +0.138 C 
BRANCH  15  16
ATOM     16  N   LIG    1        4.635  -2.917  -1.178  0.00  0.00    -0.300 NA
ATOM     17  C   LIG    1        4.985  -1.953  -2.234  0.00  0.00    +0.066 C 
ATOM     18  C   LIG    1        4.144  -2.207  -3.506  0.00  0.00    -0.067 C 
ATOM     19  N   LIG    1        4.408  -3.638  -4.011  0.00  0.00    +0.381 N 
ATOM     20  H   LIG    1        3.818  -3.840  -4.806  0.00  0.00    -0.086 HD
ATOM     21  H   LIG    1        5.368  -3.716  -4.315  0.00  0.00    -0.086 HD
ATOM     22  C   LIG    1        4.143  -4.655  -2.884  0.00  0.00    -0.067 C 
ATOM     23  C   LIG    1        4.977  -4.270  -1.639  0.00  0.00    +0.066 C 
ENDBRANCH  15  16
ENDBRANCH  12  15
ENDBRANCH   6   7
BRANCH   1  26
ATOM     24  O   LIG    1       -1.045   3.244  -1.813  0.00  0.00    -0.268 OA
ATOM     25  C   LIG    1       -0.161   3.209  -0.954  0.00  0.00    +0.268 C 
ATOM     26  N   LIG    1        0.010   2.185  -0.087  0.00  0.00    -0.280 N 
ATOM     27  H   LIG    1        0.815   2.241   0.521  0.00  0.00    +0.155 HD
BRANCH  25  28
ATOM     28  C   LIG    1        0.835   4.346  -0.834  0.00  0.00    +0.144 A 
ATOM     29  N   LIG    1        1.865   4.226   0.054  0.00  0.00    -0.239 NA
ATOM     30  C   LIG    1        2.759   5.249   0.149  0.00  0.00    +0.090 A 
ATOM     31  C   LIG    1        3.840   5.158   1.057  0.00  0.00    +0.030 A 
ATOM     32  C   LIG    1        4.754   6.206   1.155  0.00  0.00    +0.002 A 
ATOM     33  C   LIG    1        4.616   7.346   0.365  0.00  0.00    +0.002 A 
ATOM     34  C   LIG    1        3.562   7.463  -0.539  0.00  0.00    +0.030 A 
ATOM     35  C   LIG    1        2.617   6.417  -0.661  0.00  0.00    +0.089 A 
ATOM     36  N   LIG    1        1.586   6.531  -1.545  0.00  0.00    -0.251 NA
ATOM     37  C   LIG    1        0.710   5.497  -1.621  0.00  0.00    +0.144 A 
ENDBRANCH  25  28
ENDBRANCH   1  26
TORSDOF 5
