REMARK  Name = DB17499
REMARK                            x       y       z     vdW  Elec       q    Type
REMARK                         _______ _______ _______ _____ _____    ______ ____
ROOT
ATOM      1  C   LIG    1        1.723   0.454  -2.165  0.00  0.00    +0.172 C 
ATOM      2  C   LIG    1        1.867  -1.066  -2.477  0.00  0.00    +0.181 C 
ATOM      3  C   LIG    1        1.490  -1.906  -1.225  0.00  0.00    +0.211 C 
ATOM      4  O   LIG    1        2.292  -1.491  -0.118  0.00  0.00    -0.355 OA
ATOM      5  C   LIG    1        2.124  -0.132   0.303  0.00  0.00    +0.176 C 
ATOM      6  C   LIG    1        2.495   0.831  -0.860  0.00  0.00    +0.173 C 
ENDROOT
BRANCH   1  10
ATOM      7  C   LIG    1        2.315   2.224  -5.315  0.00  0.00    +0.113 A 
ATOM      8  N   LIG    1        2.522   3.161  -4.402  0.00  0.00    -0.129 NA
ATOM      9  N   LIG    1        2.339   2.616  -3.145  0.00  0.00    -0.065 NA
ATOM     10  N   LIG    1        2.059   1.317  -3.318  0.00  0.00    -0.243 N 
ATOM     11  C   LIG    1        1.993   1.037  -4.663  0.00  0.00    +0.139 A 
BRANCH   7  20
ATOM     12  C   LIG    1        2.294   1.427  -7.697  0.00  0.00    +0.051 A 
ATOM     13  C   LIG    1        2.390   1.652  -9.070  0.00  0.00    +0.162 A 
ATOM     14  F   LIG    1        2.267   0.616  -9.931  0.00  0.00    -0.202 F 
ATOM     15  C   LIG    1        2.615   2.942  -9.553  0.00  0.00    +0.193 A 
ATOM     16  F   LIG    1        2.708   3.161 -10.885  0.00  0.00    -0.199 F 
ATOM     17  C   LIG    1        2.742   4.005  -8.659  0.00  0.00    +0.162 A 
ATOM     18  F   LIG    1        2.958   5.258  -9.119  0.00  0.00    -0.202 F 
ATOM     19  C   LIG    1        2.645   3.777  -7.285  0.00  0.00    +0.051 A 
ATOM     20  C   LIG    1        2.420   2.485  -6.787  0.00  0.00    +0.009 A 
ENDBRANCH   7  20
ENDBRANCH   1  10
BRANCH   2  21
ATOM     21  O   LIG    1        3.160  -1.400  -2.959  0.00  0.00    -0.386 OA
ATOM     22  H   LIG    1        3.748  -1.488  -2.205  0.00  0.00    +0.210 HD
ENDBRANCH   2  21
BRANCH   6  23
ATOM     23  O   LIG    1        3.902   0.860  -1.040  0.00  0.00    -0.387 OA
ATOM     24  H   LIG    1        4.115   1.568  -1.654  0.00  0.00    +0.210 HD
ENDBRANCH   6  23
BRANCH   3  25
ATOM     25  S   LIG    1        1.680  -3.703  -1.471  0.00  0.00    -0.090 S 
BRANCH  25  26
ATOM     26  C   LIG    1        0.459  -4.290  -2.615  0.00  0.00    +0.030 A 
ATOM     27  C   LIG    1       -0.622  -3.504  -3.032  0.00  0.00    +0.125 A 
ATOM     28  N   LIG    1       -1.563  -3.946  -3.906  0.00  0.00    -0.261 NA
ATOM     29  C   LIG    1       -1.438  -5.210  -4.387  0.00  0.00    +0.126 A 
ATOM     30  C   LIG    1       -0.394  -6.060  -4.018  0.00  0.00    +0.037 A 
ATOM     31 BR   LIG    1       -0.279  -7.822  -4.727  0.00  0.00    -0.049 Br
ATOM     32  C   LIG    1        0.565  -5.590  -3.119  0.00  0.00    +0.033 A 
ENDBRANCH  25  26
ENDBRANCH   3  25
BRANCH   5  33
ATOM     33  C   LIG    1        0.741   0.124   0.951  0.00  0.00    +0.190 C 
BRANCH  33  34
ATOM     34  O   LIG    1        0.716   1.360   1.636  0.00  0.00    -0.392 OA
ATOM     35  H   LIG    1       -0.144   1.465   2.049  0.00  0.00    +0.210 HD
ENDBRANCH  33  34
ENDBRANCH   5  33
TORSDOF 8
