REMARK  Name = DB17048
REMARK                            x       y       z     vdW  Elec       q    Type
REMARK                         _______ _______ _______ _____ _____    ______ ____
ROOT
ATOM      1  C   LIG    1       -0.043   0.028   0.000  0.00  0.00    +0.048 C 
ATOM      2  C   LIG    1        1.485  -0.021   0.000  0.00  0.00    +0.000 C 
ATOM      3  C   LIG    1        2.182   1.284   0.000  0.00  0.00    +0.190 C 
ATOM      4  O   LIG    1        1.618   2.382   0.000  0.00  0.00    -0.287 OA
ATOM      5  C   LIG    1        3.689   1.164   0.000  0.00  0.00    +0.036 A 
ATOM      6  C   LIG    1        4.440   2.350   0.000  0.00  0.00    +0.012 A 
ATOM      7  C   LIG    1        5.828   2.327   0.000  0.00  0.00    +0.004 A 
ATOM      8  C   LIG    1        6.496   1.112   0.000  0.00  0.00    +0.046 A 
ATOM      9  C   LIG    1        5.784  -0.085   0.000  0.00  0.00    +0.128 A 
ATOM     10  C   LIG    1        4.367  -0.088   0.000  0.00  0.00    +0.074 A 
ATOM     11  C   LIG    1        3.586  -1.388   0.000  0.00  0.00    +0.191 C 
ATOM     12  O   LIG    1        4.105  -2.505   0.000  0.00  0.00    -0.287 OA
ATOM     13  C   LIG    1        2.138  -1.205   0.000  0.00  0.00    +0.058 C 
ENDROOT
BRANCH   9  14
ATOM     14  O   LIG    1        6.536  -1.235   0.000  0.00  0.00    -0.506 OA
ATOM     15  H   LIG    1        7.481  -1.063   0.000  0.00  0.00    +0.292 HD
ENDBRANCH   9  14
TORSDOF 1
