REMARK  Name = DB17737
REMARK                            x       y       z     vdW  Elec       q    Type
REMARK                         _______ _______ _______ _____ _____    ______ ____
ROOT
ATOM      1  C   LIG    1        1.803   0.321   0.877  0.00  0.00    +0.165 A 
ATOM      2  S   LIG    1        2.138  -0.874  -0.413  0.00  0.00    -0.051 S 
ATOM      3  C   LIG    1        3.872  -0.640  -0.687  0.00  0.00    +0.058 A 
ATOM      4  C   LIG    1        4.547  -1.465  -1.609  0.00  0.00    +0.137 A 
ATOM      5  C   LIG    1        5.905  -1.261  -1.862  0.00  0.00    +0.046 A 
ATOM      6  C   LIG    1        6.617  -0.262  -1.201  0.00  0.00    +0.058 A 
ATOM      7  C   LIG    1        5.948   0.548  -0.282  0.00  0.00    +0.027 A 
ATOM      8  C   LIG    1        4.578   0.380  -0.009  0.00  0.00    +0.058 A 
ATOM      9  C   LIG    1        3.947   1.335   1.012  0.00  0.00    +0.281 A 
ATOM     10  O   LIG    1        4.647   2.220   1.507  0.00  0.00    -0.265 OA
ATOM     11  N   LIG    1        2.608   1.183   1.357  0.00  0.00    -0.187 NA
ENDROOT
BRANCH   1  18
ATOM     12  C   LIG    1       -4.453   1.681   3.606  0.00  0.00    +0.040 C 
ATOM     13  C   LIG    1       -4.194   0.500   2.659  0.00  0.00    +0.144 C 
ATOM     14  O   LIG    1       -2.801   0.373   2.486  0.00  0.00    -0.343 OA
ATOM     15  C   LIG    1       -2.450   0.406   1.138  0.00  0.00    +0.173 C 
ATOM     16  C   LIG    1       -1.610   1.656   0.867  0.00  0.00    +0.084 C 
ATOM     17  C   LIG    1       -0.266   1.569   1.630  0.00  0.00    +0.112 C 
ATOM     18  N   LIG    1        0.454   0.342   1.240  0.00  0.00    -0.309 N 
ATOM     19  C   LIG    1       -0.324  -0.871   1.554  0.00  0.00    +0.112 C 
ATOM     20  C   LIG    1       -1.662  -0.853   0.779  0.00  0.00    +0.084 C 
ATOM     21  O   LIG    1       -3.630   0.459   0.406  0.00  0.00    -0.346 OA
ATOM     22  C   LIG    1       -4.744   0.672   1.244  0.00  0.00    +0.194 C 
ENDBRANCH   1  18
BRANCH   6  23
ATOM     23  C   LIG    1        8.101  -0.046  -1.501  0.00  0.00    +0.418 C 
ATOM     24  F   LIG    1        8.822  -0.856  -0.726  0.00  0.00    -0.166 F 
ATOM     25  F   LIG    1        8.475   1.212  -1.263  0.00  0.00    -0.166 F 
ATOM     26  F   LIG    1        8.379  -0.320  -2.777  0.00  0.00    -0.166 F 
ENDBRANCH   6  23
BRANCH   4  27
ATOM     27  N   LIG    1        3.866  -2.554  -2.332  0.00  0.00    +0.007 N 
ATOM     28  O   LIG    1        3.868  -2.511  -3.558  0.00  0.00    -0.130 OA
BRANCH  27  29
ATOM     29  O   LIG    1        3.364  -3.459  -1.674  0.00  0.00    -0.396 OA
ATOM     30  H   LIG    1        3.397  -3.432  -0.738  0.00  0.00    +0.329 HD
ENDBRANCH  27  29
ENDBRANCH   4  27
TORSDOF 4
