REMARK  Name = DB17506
REMARK                            x       y       z     vdW  Elec       q    Type
REMARK                         _______ _______ _______ _____ _____    ______ ____
ROOT
ATOM      1  C   LIG    1       -5.777  -1.580  -0.083  0.00  0.00    +0.077 A 
ATOM      2  C   LIG    1       -4.613  -0.809   0.037  0.00  0.00    +0.058 A 
ATOM      3  C   LIG    1       -3.381  -1.464  -0.112  0.00  0.00    +0.098 A 
ATOM      4  N   LIG    1       -3.313  -2.800  -0.369  0.00  0.00    -0.213 NA
ATOM      5  C   LIG    1       -4.489  -3.465  -0.480  0.00  0.00    +0.214 A 
ATOM      6  N   LIG    1       -5.722  -2.915  -0.351  0.00  0.00    -0.215 NA
ENDROOT
BRANCH   1  13
ATOM      7  C   LIG    1       -6.611  -0.134   2.401  0.00  0.00    +0.046 C 
ATOM      8  C   LIG    1       -7.549  -0.258   1.191  0.00  0.00    -0.024 A 
ATOM      9  C   LIG    1       -8.840   0.319   1.218  0.00  0.00    +0.055 A 
ATOM     10  C   LIG    1       -9.705   0.150   0.134  0.00  0.00    +0.019 A 
ATOM     11  C   LIG    1       -9.306  -0.585  -0.976  0.00  0.00    +0.002 A 
ATOM     12  C   LIG    1       -8.036  -1.145  -1.015  0.00  0.00    +0.010 A 
ATOM     13  C   LIG    1       -7.139  -0.989   0.050  0.00  0.00    +0.005 A 
BRANCH   9  14
ATOM     14  C   LIG    1       -9.326   1.110   2.347  0.00  0.00    +0.099 C 
ATOM     15  N   LIG    1       -9.711   1.736   3.240  0.00  0.00    -0.191 NA
ENDBRANCH   9  14
ENDBRANCH   1  13
BRANCH   3  16
ATOM     16  C   LIG    1       -2.069  -0.754  -0.004  0.00  0.00    +0.131 A 
ATOM     17  N   LIG    1       -1.979   0.557   0.178  0.00  0.00    -0.128 NA
ATOM     18  N   LIG    1       -0.645   0.917   0.239  0.00  0.00    -0.065 NA
ATOM     19  N   LIG    1        0.056  -0.208   0.071  0.00  0.00    -0.245 N 
ATOM     20  C   LIG    1       -0.782  -1.284  -0.063  0.00  0.00    +0.140 A 
BRANCH  19  21
ATOM     21  C   LIG    1        1.510  -0.195   0.142  0.00  0.00    +0.200 C 
BRANCH  21  22
ATOM     22  C   LIG    1        2.039  -0.171   1.568  0.00  0.00    +0.063 A 
ATOM     23  C   LIG    1        2.353  -1.352   2.244  0.00  0.00    +0.025 A 
ATOM     24  C   LIG    1        2.833  -1.261   3.551  0.00  0.00    +0.004 A 
ATOM     25  C   LIG    1        2.989  -0.007   4.144  0.00  0.00    +0.026 A 
ATOM     26  C   LIG    1        2.658   1.141   3.407  0.00  0.00    +0.073 A 
ATOM     27  N   LIG    1        2.190   1.057   2.129  0.00  0.00    -0.252 NA
BRANCH  26  28
ATOM     28  C   LIG    1        2.796   2.567   3.977  0.00  0.00    +0.102 C 
ATOM     29  C   LIG    1        1.422   3.274   4.028  0.00  0.00    +0.048 C 
ATOM     30  C   LIG    1        3.812   3.393   3.156  0.00  0.00    +0.048 C 
BRANCH  28  31
ATOM     31  O   LIG    1        3.282   2.586   5.310  0.00  0.00    -0.383 OA
ATOM     32  H   LIG    1        3.340   3.500   5.598  0.00  0.00    +0.211 HD
ENDBRANCH  28  31
ENDBRANCH  26  28
ENDBRANCH  21  22
ENDBRANCH  19  21
ENDBRANCH   3  16
BRANCH   5  33
ATOM     33  N   LIG    1       -4.427  -4.828  -0.751  0.00  0.00    -0.327 N 
ATOM     34  H   LIG    1       -5.285  -5.354  -0.839  0.00  0.00    +0.145 HD
ATOM     35  H   LIG    1       -3.527  -5.272  -0.855  0.00  0.00    +0.145 HD
ENDBRANCH   5  33
TORSDOF 8
