REMARK  Name = DB17148
REMARK                            x       y       z     vdW  Elec       q    Type
REMARK                         _______ _______ _______ _____ _____    ______ ____
ROOT
ATOM      1  C   LIG    1        1.457   1.321   2.178  0.00  0.00    +0.004 A 
ATOM      2  C   LIG    1        1.166   2.778   2.093  0.00  0.00    +0.027 A 
ATOM      3  C   LIG    1        1.467   3.546   0.961  0.00  0.00    +0.014 A 
ATOM      4  C   LIG    1        1.163   4.906   0.928  0.00  0.00    +0.024 A 
ATOM      5  C   LIG    1        0.552   5.522   2.023  0.00  0.00    +0.042 A 
ATOM      6  C   LIG    1        0.239   4.770   3.163  0.00  0.00    +0.081 A 
ATOM      7 BR   LIG    1       -0.604   5.576   4.678  0.00  0.00    -0.045 Br
ATOM      8  C   LIG    1        0.547   3.407   3.190  0.00  0.00    +0.152 A 
ATOM      9  O   LIG    1        0.210   2.705   4.336  0.00  0.00    -0.452 OA
ATOM     10  C   LIG    1        0.467   1.369   4.399  0.00  0.00    +0.152 A 
ATOM     11  C   LIG    1        0.082   0.760   5.555  0.00  0.00    +0.083 A 
ATOM     12 BR   LIG    1       -0.785   1.825   6.993  0.00  0.00    -0.044 Br
ATOM     13  C   LIG    1        0.301  -0.623   5.725  0.00  0.00    +0.050 A 
ATOM     14  N   LIG    1       -0.065  -1.236   6.833  0.00  0.00    -0.397 N 
ATOM     15  H   LIG    1        0.091  -2.231   6.959  0.00  0.00    +0.156 HD
ATOM     16  H   LIG    1       -0.514  -0.727   7.589  0.00  0.00    +0.156 HD
ATOM     17  C   LIG    1        0.918  -1.362   4.705  0.00  0.00    +0.027 A 
ATOM     18  C   LIG    1        1.310  -0.776   3.548  0.00  0.00    +0.014 A 
ATOM     19  C   LIG    1        1.109   0.648   3.301  0.00  0.00    +0.027 A 
ENDROOT
BRANCH   1  25
ATOM     20  C   LIG    1        1.402  -0.170   0.085  0.00  0.00    +0.067 A 
ATOM     21  C   LIG    1        2.144  -0.785  -0.943  0.00  0.00    +0.015 A 
ATOM     22  C   LIG    1        3.524  -0.629  -1.035  0.00  0.00    +0.001 A 
ATOM     23  C   LIG    1        4.199   0.152  -0.104  0.00  0.00    +0.001 A 
ATOM     24  C   LIG    1        3.491   0.771   0.920  0.00  0.00    +0.009 A 
ATOM     25  C   LIG    1        2.103   0.618   1.037  0.00  0.00    -0.003 A 
BRANCH  20  26
ATOM     26  C   LIG    1       -0.101  -0.342   0.111  0.00  0.00    +0.340 C 
ATOM     27  O   LIG    1       -0.865   0.368   0.769  0.00  0.00    -0.245 OA
BRANCH  26  29
ATOM     28  C   LIG    1       -1.909  -1.738  -0.691  0.00  0.00    +0.280 C 
ATOM     29  O   LIG    1       -0.528  -1.407  -0.618  0.00  0.00    -0.464 OA
ENDBRANCH  26  29
ENDBRANCH  20  26
ENDBRANCH   1  25
BRANCH   5  30
ATOM     30  N   LIG    1        0.260   6.885   1.954  0.00  0.00    -0.357 N 
ATOM     31  H   LIG    1        0.332   7.346   1.058  0.00  0.00    +0.142 HD
ATOM     32  H   LIG    1       -0.308   7.286   2.687  0.00  0.00    +0.142 HD
ENDBRANCH   5  30
TORSDOF 4
