REMARK  Name = DB17022
REMARK                            x       y       z     vdW  Elec       q    Type
REMARK                         _______ _______ _______ _____ _____    ______ ____
ROOT
ATOM      1  C   LIG    1        0.496  -1.394  -0.019  0.00  0.00    -0.027 C 
ATOM      2  C   LIG    1        1.222  -1.366   1.116  0.00  0.00    -0.027 C 
ENDROOT
BRANCH   1   3
ATOM      3  C   LIG    1        0.682  -0.538  -1.261  0.00  0.00    +0.053 C 
BRANCH   3   5
ATOM      4  C   LIG    1       -0.458   1.749  -1.601  0.00  0.00    -0.027 C 
ATOM      5  C   LIG    1       -0.481   0.403  -1.533  0.00  0.00    -0.027 C 
BRANCH   4   6
ATOM      6  C   LIG    1        0.733   2.670  -1.392  0.00  0.00    +0.053 C 
BRANCH   6   8
ATOM      7  C   LIG    1        0.620   4.361   0.542  0.00  0.00    -0.031 C 
ATOM      8  C   LIG    1        0.365   3.986  -0.726  0.00  0.00    -0.027 C 
BRANCH   7   9
ATOM      9  C   LIG    1        1.306   3.540   1.621  0.00  0.00    +0.027 C 
BRANCH   9  10
ATOM     10  C   LIG    1        2.720   4.043   1.954  0.00  0.00    +0.004 C 
BRANCH  10  11
ATOM     11  C   LIG    1        3.442   3.159   2.985  0.00  0.00    +0.000 C 
BRANCH  11  13
ATOM     12  C   LIG    1        5.587   2.770   4.328  0.00  0.00    +0.004 C 
ATOM     13  C   LIG    1        4.830   3.699   3.371  0.00  0.00    -0.003 C 
ENDBRANCH  11  13
ENDBRANCH  10  11
ENDBRANCH   9  10
ENDBRANCH   7   9
ENDBRANCH   6   8
ENDBRANCH   4   6
ENDBRANCH   3   5
ENDBRANCH   1   3
BRANCH   2  14
ATOM     14  C   LIG    1        2.383  -0.445   1.447  0.00  0.00    +0.053 C 
BRANCH  14  15
ATOM     15  C   LIG    1        3.745  -1.075   1.205  0.00  0.00    -0.027 C 
ATOM     16  C   LIG    1        4.714  -0.652   0.368  0.00  0.00    -0.031 C 
BRANCH  16  17
ATOM     17  C   LIG    1        4.687   0.562  -0.548  0.00  0.00    +0.027 C 
BRANCH  17  18
ATOM     18  C   LIG    1        5.619   1.689  -0.081  0.00  0.00    +0.012 C 
BRANCH  18  19
ATOM     19  C   LIG    1        5.446   2.977  -0.912  0.00  0.00    +0.084 C 
BRANCH  19  20
ATOM     20  C   LIG    1        6.320   4.156  -0.456  0.00  0.00    +0.235 C 
ATOM     21  O   LIG    1        7.235   4.009   0.357  0.00  0.00    -0.288 OA
BRANCH  20  22
ATOM     22  C   LIG    1        5.983   5.534  -1.043  0.00  0.00    +0.451 C 
ATOM     23  F   LIG    1        6.029   5.472  -2.373  0.00  0.00    -0.163 F 
ATOM     24  F   LIG    1        6.855   6.450  -0.615  0.00  0.00    -0.163 F 
ATOM     25  F   LIG    1        4.756   5.886  -0.659  0.00  0.00    -0.163 F 
ENDBRANCH  20  22
ENDBRANCH  19  20
ENDBRANCH  18  19
ENDBRANCH  17  18
ENDBRANCH  16  17
ENDBRANCH  14  15
ENDBRANCH   2  14
TORSDOF 15
