REMARK  Name = DB17038
REMARK                            x       y       z     vdW  Elec       q    Type
REMARK                         _______ _______ _______ _____ _____    ______ ____
ROOT
ATOM      1 CL   LIG    1       -1.582   3.634   1.498  0.00  0.00    -0.077 Cl
ATOM      2  C   LIG    1       -2.629   2.311   0.903  0.00  0.00    +0.112 C 
ATOM      3  C   LIG    1       -3.985   2.460   0.840  0.00  0.00    +0.147 C 
ATOM      4  C   LIG    1       -4.879   1.353   0.364  0.00  0.00    +0.047 A 
ATOM      5  C   LIG    1       -6.261   1.481   0.105  0.00  0.00    +0.015 A 
ATOM      6  C   LIG    1       -6.999   0.390  -0.350  0.00  0.00    +0.020 A 
ATOM      7  C   LIG    1       -6.339  -0.818  -0.547  0.00  0.00    +0.111 A 
ATOM      8  N   LIG    1       -5.014  -0.975  -0.318  0.00  0.00    -0.251 NA
ATOM      9  C   LIG    1       -4.290   0.092   0.128  0.00  0.00    +0.123 A 
ATOM     10  C   LIG    1       -2.822  -0.140   0.373  0.00  0.00    +0.231 C 
ATOM     11  O   LIG    1       -2.382  -1.286   0.511  0.00  0.00    -0.283 OA
ATOM     12  C   LIG    1       -1.950   1.078   0.505  0.00  0.00    +0.129 C 
ATOM     13  N   LIG    1       -0.672   1.049   0.322  0.00  0.00    -0.277 NA
ENDROOT
BRANCH   3  14
ATOM     14  O   LIG    1       -4.570   3.545   1.233  0.00  0.00    -0.505 OA
ATOM     15  H   LIG    1       -4.059   4.268   1.540  0.00  0.00    +0.292 HD
ENDBRANCH   3  14
BRANCH  13  16
ATOM     16  C   LIG    1        0.079  -0.061  -0.247  0.00  0.00    +0.157 C 
BRANCH  16  17
ATOM     17  C   LIG    1        1.333   0.506  -0.948  0.00  0.00    +0.108 C 
BRANCH  17  18
ATOM     18  N   LIG    1        2.102  -0.515  -1.671  0.00  0.00    -0.296 NA
ATOM     19  C   LIG    1        2.656  -1.558  -0.793  0.00  0.00    +0.112 C 
ATOM     20  C   LIG    1        3.552  -2.546  -1.571  0.00  0.00    +0.175 C 
ATOM     21  O   LIG    1        4.562  -1.841  -2.283  0.00  0.00    -0.377 OA
ATOM     22  C   LIG    1        4.016  -0.921  -3.221  0.00  0.00    +0.175 C 
ATOM     23  C   LIG    1        3.142   0.122  -2.490  0.00  0.00    +0.112 C 
ENDBRANCH  17  18
ENDBRANCH  16  17
ENDBRANCH  13  16
TORSDOF 4
