REMARK  Name = DB17750
REMARK                            x       y       z     vdW  Elec       q    Type
REMARK                         _______ _______ _______ _____ _____    ______ ____
ROOT
ATOM      1  C   LIG    1        0.096  -1.023   0.559  0.00  0.00    +0.000 C 
ENDROOT
BRANCH   1   2
ATOM      2  C   LIG    1       -1.387  -1.129   0.153  0.00  0.00    +0.000 C 
BRANCH   2   3
ATOM      3  C   LIG    1       -2.015   0.235  -0.181  0.00  0.00    +0.000 C 
BRANCH   3   4
ATOM      4  C   LIG    1       -3.492   0.127  -0.608  0.00  0.00    +0.004 C 
BRANCH   4   5
ATOM      5  C   LIG    1       -4.157   1.488  -0.886  0.00  0.00    +0.027 C 
BRANCH   5   7
ATOM      6  C   LIG    1       -2.832   3.324  -2.093  0.00  0.00    -0.031 C 
ATOM      7  C   LIG    1       -3.604   2.220  -2.098  0.00  0.00    -0.031 C 
BRANCH   6   8
ATOM      8  C   LIG    1       -2.302   4.065  -0.877  0.00  0.00    +0.027 C 
BRANCH   8   9
ATOM      9  C   LIG    1       -3.020   5.403  -0.626  0.00  0.00    +0.004 C 
BRANCH   9  10
ATOM     10  C   LIG    1       -2.559   6.142   0.646  0.00  0.00    +0.000 C 
BRANCH  10  11
ATOM     11  C   LIG    1       -1.101   6.641   0.595  0.00  0.00    +0.000 C 
BRANCH  11  12
ATOM     12  C   LIG    1       -0.702   7.449   1.843  0.00  0.00    -0.000 C 
BRANCH  12  13
ATOM     13  C   LIG    1        0.749   7.960   1.788  0.00  0.00    -0.000 C 
BRANCH  13  15
ATOM     14  C   LIG    1        2.591   9.287   2.974  0.00  0.00    +0.004 C 
ATOM     15  C   LIG    1        1.147   8.771   3.034  0.00  0.00    -0.003 C 
ENDBRANCH  13  15
ENDBRANCH  12  13
ENDBRANCH  11  12
ENDBRANCH  10  11
ENDBRANCH   9  10
ENDBRANCH   8   9
ENDBRANCH   6   8
ENDBRANCH   5   7
ENDBRANCH   4   5
ENDBRANCH   3   4
ENDBRANCH   2   3
ENDBRANCH   1   2
BRANCH   1  16
ATOM     16  C   LIG    1        0.772  -2.377   0.846  0.00  0.00    +0.002 C 
BRANCH  16  17
ATOM     17  C   LIG    1        0.266  -3.086   2.119  0.00  0.00    +0.029 C 
BRANCH  17  18
ATOM     18  C   LIG    1        0.959  -4.432   2.391  0.00  0.00    +0.172 C 
BRANCH  18  19
ATOM     19  O   LIG    1        2.355  -4.232   2.562  0.00  0.00    -0.287 OA
BRANCH  19  20
ATOM     20  P   LIG    1        3.426  -5.185   1.599  0.00  0.00    +0.475 P 
ATOM     21  O   LIG    1        3.005  -6.636   1.689  0.00  0.00    -0.227 OA
BRANCH  20  22
ATOM     22  O   LIG    1        4.841  -4.721   1.866  0.00  0.00    -0.302 OA
ATOM     23  H   LIG    1        5.133  -5.053   2.729  0.00  0.00    +0.222 HD
ENDBRANCH  20  22
BRANCH  20  24
ATOM     24  O   LIG    1        2.946  -4.574   0.059  0.00  0.00    -0.289 OA
BRANCH  24  25
ATOM     25  C   LIG    1        3.434  -5.246  -1.085  0.00  0.00    +0.154 C 
BRANCH  25  26
ATOM     26  C   LIG    1        3.664  -4.271  -2.261  0.00  0.00    -0.047 C 
BRANCH  26  27
ATOM     27  N   LIG    1        4.712  -3.144  -2.005  0.00  0.00    +0.376 N 
ATOM     28  C   LIG    1        6.078  -3.727  -1.571  0.00  0.00    -0.093 C 
ATOM     29  C   LIG    1        4.237  -2.114  -0.950  0.00  0.00    -0.093 C 
ATOM     30  C   LIG    1        4.915  -2.384  -3.340  0.00  0.00    -0.093 C 
ENDBRANCH  26  27
ENDBRANCH  25  26
ENDBRANCH  24  25
ENDBRANCH  20  24
ENDBRANCH  19  20
ENDBRANCH  18  19
ENDBRANCH  17  18
ENDBRANCH  16  17
ENDBRANCH   1  16
TORSDOF 22
