REMARK  Name = DB17237
REMARK                            x       y       z     vdW  Elec       q    Type
REMARK                         _______ _______ _______ _____ _____    ______ ____
ROOT
ATOM      1  C   LIG    1       -0.927   0.878   0.529  0.00  0.00    +0.055 A 
ATOM      2  C   LIG    1       -2.275   0.535   0.323  0.00  0.00    +0.048 A 
ATOM      3  C   LIG    1       -2.512  -0.831   0.339  0.00  0.00    +0.065 A 
ATOM      4  S   LIG    1       -1.043  -1.717   0.584  0.00  0.00    -0.073 S 
ATOM      5  C   LIG    1       -0.098  -0.256   0.684  0.00  0.00    +0.096 A 
ENDROOT
BRANCH   1  10
ATOM      6  N   LIG    1       -0.080   4.216   1.302  0.00  0.00    -0.313 N 
ATOM      7  H   LIG    1        0.396   4.401   0.432  0.00  0.00    +0.146 HD
ATOM      8  H   LIG    1       -0.141   4.943   2.000  0.00  0.00    +0.146 HD
ATOM      9  C   LIG    1       -0.677   3.043   1.513  0.00  0.00    +0.301 C 
ATOM     10  N   LIG    1       -0.496   2.192   0.487  0.00  0.00    -0.268 N 
ATOM     11  H   LIG    1        0.100   2.466  -0.280  0.00  0.00    +0.156 HD
ATOM     12  O   LIG    1       -1.304   2.798   2.544  0.00  0.00    -0.253 OA
ENDBRANCH   1  10
BRANCH   5  13
ATOM     13  C   LIG    1        1.335  -0.384   0.894  0.00  0.00    +0.253 C 
ATOM     14  N   LIG    1        1.990   0.773   1.099  0.00  0.00    -0.310 N 
ATOM     15  H   LIG    1        1.462   1.632   1.041  0.00  0.00    +0.149 HD
ATOM     16  O   LIG    1        1.893  -1.484   0.904  0.00  0.00    -0.270 OA
BRANCH  14  17
ATOM     17  C   LIG    1        3.426   0.918   1.340  0.00  0.00    +0.056 C 
ATOM     18  C   LIG    1        3.851   0.524   2.780  0.00  0.00    -0.060 C 
ATOM     19  N   LIG    1        5.369   0.701   2.978  0.00  0.00    +0.380 N 
ATOM     20  H   LIG    1        5.612   0.466   3.930  0.00  0.00    -0.086 HD
ATOM     21  H   LIG    1        5.862   0.053   2.378  0.00  0.00    -0.086 HD
ATOM     22  C   LIG    1        5.834   2.134   2.667  0.00  0.00    -0.082 C 
ATOM     23  C   LIG    1        5.455   2.486   1.218  0.00  0.00    -0.017 C 
ATOM     24  C   LIG    1        3.949   2.316   0.938  0.00  0.00    +0.018 C 
ENDBRANCH  14  17
ENDBRANCH   5  13
BRANCH   3  25
ATOM     25  C   LIG    1       -3.773  -1.530   0.169  0.00  0.00    -0.054 C 
ATOM     26  C   LIG    1       -4.841  -2.104   0.020  0.00  0.00    -0.060 C 
BRANCH  26  27
ATOM     27  C   LIG    1       -6.117  -2.778  -0.166  0.00  0.00    +0.028 A 
ATOM     28  C   LIG    1       -6.219  -3.857  -1.051  0.00  0.00    +0.055 A 
ATOM     29  C   LIG    1       -7.444  -4.501  -1.230  0.00  0.00    +0.125 A 
ATOM     30  F   LIG    1       -7.540  -5.544  -2.086  0.00  0.00    -0.205 F 
ATOM     31  C   LIG    1       -8.570  -4.071  -0.526  0.00  0.00    +0.038 A 
ATOM     32  C   LIG    1       -8.471  -2.995   0.356  0.00  0.00    +0.004 A 
ATOM     33  C   LIG    1       -7.248  -2.348   0.537  0.00  0.00    +0.017 A 
ENDBRANCH  26  27
ENDBRANCH   3  25
TORSDOF 5
