REMARK  Name = DB17851
REMARK                            x       y       z     vdW  Elec       q    Type
REMARK                         _______ _______ _______ _____ _____    ______ ____
ROOT
ATOM      1  C   UNK A  1        0.141   3.382  -2.405  0.00  0.00    +0.000 C 
ENDROOT
BRANCH   1   2
ATOM      2  C   UNK A  1       -0.332   2.588  -1.160  0.00  0.00    +0.000 C 
ATOM      3  N   UNK A  1        0.432   2.665  -0.052  0.00  0.00    +0.000 N 
ATOM      4  H   UNK A  1        1.251   3.255  -0.083  0.00  0.00    +0.000 HD
ATOM      5  O   UNK A  1       -1.349   1.899  -1.242  0.00  0.00    +0.000 OA
BRANCH   3   6
ATOM      6  C   UNK A  1        0.239   1.948   1.217  0.00  0.00    +0.000 C 
BRANCH   6   7
ATOM      7  C   UNK A  1       -1.028   2.400   1.988  0.00  0.00    +0.000 C 
ATOM      8  O   UNK A  1       -1.780   3.282   1.624  0.00  0.00    +0.000 OA
BRANCH   7   9
ATOM      9  O   UNK A  1       -1.142   1.703   3.158  0.00  0.00    +0.000 OA
ATOM     10  H   UNK A  1       -1.908   1.973   3.669  0.00  0.00    +0.000 HD
ENDBRANCH   7   9
ENDBRANCH   6   7
BRANCH   6  11
ATOM     11  C   UNK A  1        0.330   0.406   1.052  0.00  0.00    +0.000 C 
BRANCH  11  12
ATOM     12  C   UNK A  1        1.622  -0.063   0.351  0.00  0.00    +0.000 C 
BRANCH  12  13
ATOM     13  C   UNK A  1        1.654  -1.584   0.103  0.00  0.00    +0.000 C 
BRANCH  13  14
ATOM     14  C   UNK A  1        2.925  -2.090  -0.610  0.00  0.00    +0.000 C 
BRANCH  14  15
ATOM     15  N   UNK A  1        3.122  -1.492  -1.933  0.00  0.00    +0.000 N 
ATOM     16  H   UNK A  1        2.574  -1.888  -2.683  0.00  0.00    +0.000 HD
ATOM     17  C   UNK A  1        3.973  -0.492  -2.226  0.00  0.00    +0.000 C 
ATOM     18  O   UNK A  1        4.714   0.040  -1.398  0.00  0.00    +0.000 OA
BRANCH  17  19
ATOM     19  C   UNK A  1        3.978  -0.009  -3.682  0.00  0.00    +0.000 C 
BRANCH  19  20
ATOM     20  C   UNK A  1        5.379   0.029  -4.341  0.00  0.00    +0.000 C 
BRANCH  20  21
ATOM     21  C   UNK A  1        6.026  -1.334  -4.641  0.00  0.00    +0.000 C 
ATOM     22  N   UNK A  1        5.229  -2.301  -5.132  0.00  0.00    +0.000 N 
ATOM     23  H   UNK A  1        4.251  -2.097  -5.271  0.00  0.00    +0.000 HD
ATOM     24  O   UNK A  1        7.231  -1.488  -4.441  0.00  0.00    +0.000 OA
BRANCH  22  25
ATOM     25  C   UNK A  1        5.666  -3.650  -5.486  0.00  0.00    +0.000 C 
BRANCH  25  26
ATOM     26  C   UNK A  1        6.452  -3.721  -6.810  0.00  0.00    +0.000 C 
BRANCH  26  27
ATOM     27  C   UNK A  1        6.847  -5.164  -7.188  0.00  0.00    +0.000 C 
BRANCH  27  28
ATOM     28  C   UNK A  1        7.755  -5.281  -8.444  0.00  0.00    +0.000 C 
BRANCH  28  29
ATOM     29  N   UNK A  1        8.219  -6.652  -8.681  0.00  0.00    +0.000 N 
ATOM     30  H   UNK A  1        9.215  -6.780  -8.577  0.00  0.00    +0.000 HD
ATOM     31  C   UNK A  1        7.467  -7.731  -8.973  0.00  0.00    +0.000 C 
ATOM     32  O   UNK A  1        6.251  -7.681  -9.150  0.00  0.00    +0.000 OA
BRANCH  31  33
ATOM     33  C   UNK A  1        8.190  -9.082  -9.117  0.00  0.00    +0.000 C 
BRANCH  33  34
ATOM     34  C   UNK A  1        9.463  -9.293  -8.251  0.00  0.00    +0.000 C 
BRANCH  34  35
ATOM     35  C   UNK A  1        9.346  -9.070  -6.715  0.00  0.00    +0.000 C 
BRANCH  35  36
ATOM     36  N   UNK A  1       10.672  -9.134  -6.089  0.00  0.00    +0.000 N 
ATOM     37  H   UNK A  1       11.383  -9.607  -6.628  0.00  0.00    +0.000 HD
ATOM     38  C   UNK A  0       10.985  -8.661  -4.872  0.00  0.00    +0.000 C 
ATOM     39  N   UNK A  1       12.256  -8.944  -4.543  0.00  0.00    +0.000 N 
ATOM     40  H   UNK A  1       12.819  -9.478  -5.189  0.00  0.00    +0.000 HD
ATOM     41  O   UNK A  0       10.200  -8.047  -4.146  0.00  0.00    +0.000 OA
BRANCH  39  42
ATOM     42  C   UNK A  1       12.940  -8.530  -3.311  0.00  0.00    +0.000 C 
BRANCH  42  43
ATOM     43  C   UNK A  1       13.110  -6.997  -3.214  0.00  0.00    +0.000 C 
ATOM     44  O   UNK A  1       12.713  -6.342  -2.273  0.00  0.00    +0.000 OA
BRANCH  43  45
ATOM     45  O   UNK A  1       13.756  -6.511  -4.316  0.00  0.00    +0.000 OA
ATOM     46  H   UNK A  1       13.874  -5.560  -4.277  0.00  0.00    +0.000 HD
ENDBRANCH  43  45
ENDBRANCH  42  43
BRANCH  42  47
ATOM     47  C   UNK A  1       14.280  -9.302  -3.198  0.00  0.00    +0.000 C 
BRANCH  47  48
ATOM     48  C   UNK A  1       15.021  -9.109  -1.857  0.00  0.00    +0.000 C 
BRANCH  48  49
ATOM     49  C   UNK A  1       16.301  -9.941  -1.748  0.00  0.00    +0.000 C 
ATOM     50  O   UNK A  1       16.773 -10.618  -2.660  0.00  0.00    +0.000 OA
BRANCH  49  51
ATOM     51  O   UNK A  1       16.868  -9.837  -0.512  0.00  0.00    +0.000 OA
ATOM     52  H   UNK A  1       17.674 -10.351  -0.431  0.00  0.00    +0.000 HD
ENDBRANCH  49  51
ENDBRANCH  48  49
ENDBRANCH  47  48
ENDBRANCH  42  47
ENDBRANCH  39  42
ENDBRANCH  35  36
BRANCH  35  53
ATOM     53  C   UNK A  1        8.350 -10.050  -6.048  0.00  0.00    +0.000 C 
ATOM     54  O   UNK A  1        8.675 -11.057  -5.451  0.00  0.00    +0.000 OA
BRANCH  53  55
ATOM     55  O   UNK A  1        7.073  -9.600  -6.216  0.00  0.00    +0.000 OA
ATOM     56  H   UNK A  1        6.425 -10.176  -5.804  0.00  0.00    +0.000 HD
ENDBRANCH  53  55
ENDBRANCH  35  53
ENDBRANCH  34  35
ENDBRANCH  33  34
ENDBRANCH  31  33
ENDBRANCH  28  29
BRANCH  28  57
ATOM     57  C   UNK A  1        7.205  -4.625  -9.732  0.00  0.00    +0.000 C 
ATOM     58  O   UNK A  1        7.919  -4.082 -10.550  0.00  0.00    +0.000 OA
BRANCH  57  59
ATOM     59  O   UNK A  1        5.848  -4.757  -9.823  0.00  0.00    +0.000 OA
ATOM     60  H   UNK A  1        5.497  -4.368 -10.628  0.00  0.00    +0.000 HD
ENDBRANCH  57  59
ENDBRANCH  28  57
ENDBRANCH  27  28
ENDBRANCH  26  27
ENDBRANCH  25  26
ENDBRANCH  22  25
ENDBRANCH  20  21
ENDBRANCH  19  20
ENDBRANCH  17  19
ENDBRANCH  14  15
ENDBRANCH  13  14
ENDBRANCH  12  13
ENDBRANCH  11  12
ENDBRANCH   6  11
ENDBRANCH   3   6
ENDBRANCH   1   2
BRANCH   1  61
ATOM     61  N   UNK A  1        1.234   4.319  -2.114  0.00  0.00    +0.000 N 
ATOM     62  H   UNK A  1        2.148   4.001  -2.401  0.00  0.00    +0.000 HD
ATOM     63  C   UNK A  0        1.147   5.492  -1.456  0.00  0.00    +0.000 C 
ATOM     64  O   UNK A  0        0.079   5.954  -1.057  0.00  0.00    +0.000 OA
BRANCH  63  65
ATOM     65  C   UNK A  0        2.448   6.251  -1.136  0.00  0.00    +0.000 C 
BRANCH  65  66
ATOM     66  C   UNK A  0        3.769   5.738  -1.787  0.00  0.00    +0.000 C 
BRANCH  66  67
ATOM     67  C   UNK A  0        4.803   5.158  -0.775  0.00  0.00    +0.000 C 
BRANCH  67  68
ATOM     68  N   UNK A  0        6.161   4.845  -1.313  0.00  0.00    +0.000 NA
ATOM     69  C   UNK A  0        7.153   5.906  -1.069  0.00  0.00    +0.000 C 
ATOM     70  C   UNK A  0        6.884   7.219  -1.845  0.00  0.00    +0.000 C 
ATOM     71  N   UNK A  0        7.955   8.212  -1.708  0.00  0.00    +0.000 NA
ATOM     72  C   UNK A  0        9.359   7.870  -1.946  0.00  0.00    +0.000 C 
ATOM     73  C   UNK A  0        9.677   7.734  -3.455  0.00  0.00    +0.000 C 
ATOM     74  N   UNK A  0       10.533   6.579  -3.741  0.00  0.00    +0.000 NA
ATOM     75  C   UNK A  0       10.007   5.212  -3.669  0.00  0.00    +0.000 C 
ATOM     76  C   UNK A  0        8.748   5.000  -4.542  0.00  0.00    +0.000 C 
ATOM     77  N   UNK A  0        8.069   3.733  -4.258  0.00  0.00    +0.000 NA
ATOM     78  C   UNK A  0        7.530   3.456  -2.924  0.00  0.00    +0.000 C 
ATOM     79  C   UNK A  0        6.217   4.237  -2.652  0.00  0.00    +0.000 C 
BRANCH  71  80
ATOM     80  C   UNK A  0        7.577   9.616  -1.903  0.00  0.00    +0.000 C 
BRANCH  80  81
ATOM     81  C   UNK A  0        7.435  10.347  -0.557  0.00  0.00    +0.000 C 
ATOM     82  O   UNK A  0        7.602   9.832   0.549  0.00  0.00    +0.000 OA
BRANCH  81  83
ATOM     83  O   UNK A  0        7.096  11.653  -0.756  0.00  0.00    +0.000 OA
ATOM     84  H   UNK A  0        7.003  12.134   0.069  0.00  0.00    +0.000 HD
ENDBRANCH  81  83
ENDBRANCH  80  81
ENDBRANCH  71  80
BRANCH  74  85
ATOM     85  C   UNK A  0       11.962   6.741  -3.457  0.00  0.00    +0.000 C 
BRANCH  85  86
ATOM     86  C   UNK A  0       12.735   6.925  -4.769  0.00  0.00    +0.000 C 
ATOM     87  O   UNK A  0       13.574   6.119  -5.166  0.00  0.00    +0.000 OA
BRANCH  86  88
ATOM     88  O   UNK A  0       12.400   8.082  -5.413  0.00  0.00    +0.000 OA
ATOM     89  H   UNK A  0       12.887   8.197  -6.232  0.00  0.00    +0.000 HD
ENDBRANCH  86  88
ENDBRANCH  85  86
ENDBRANCH  74  85
BRANCH  77  90
ATOM     90  C   UNK A  0        7.414   3.061  -5.387  0.00  0.00    +0.000 C 
BRANCH  90  91
ATOM     91  C   UNK A  0        8.247   1.872  -5.900  0.00  0.00    +0.000 C 
ATOM     92  O   UNK A  0        8.323   1.595  -7.095  0.00  0.00    +0.000 OA
BRANCH  91  93
ATOM     93  O   UNK A  0        8.822   1.135  -4.903  0.00  0.00    +0.000 OA
ATOM     94  H   UNK A  0        9.306   0.376  -5.236  0.00  0.00    +0.000 HD
ENDBRANCH  91  93
ENDBRANCH  90  91
ENDBRANCH  77  90
ENDBRANCH  67  68
BRANCH  67  95
ATOM     95  C   UNK A  0        4.289   3.879  -0.076  0.00  0.00    +0.000 C 
ATOM     96  O   UNK A  0        3.792   2.935  -0.690  0.00  0.00    +0.000 OA
BRANCH  95  97
ATOM     97  O   UNK A  0        4.454   3.942   1.277  0.00  0.00    +0.000 OA
ATOM     98  H   UNK A  0        4.153   3.147   1.720  0.00  0.00    +0.000 HD
ENDBRANCH  95  97
ENDBRANCH  67  95
ENDBRANCH  66  67
ENDBRANCH  65  66
ENDBRANCH  63  65
ENDBRANCH   1  61
BRANCH   1  99
ATOM     99  C   UNK A  1       -1.030   4.040  -3.196  0.00  0.00    +0.000 C 
BRANCH  99 101
ATOM    100  C   UNK A  1       -1.470   2.498  -5.115  0.00  0.00    +0.000 C 
ATOM    101  N   UNK A  1       -1.852   3.112  -3.977  0.00  0.00    +0.000 N 
ATOM    102  H   UNK A  1       -2.817   3.028  -3.691  0.00  0.00    +0.000 HD
ATOM    103  O   UNK A  1       -0.342   2.635  -5.596  0.00  0.00    +0.000 OA
BRANCH 100 107
ATOM    104  C   UNK A  1       -4.372  -0.072  -7.067  0.00  0.00    +0.000 A 
ATOM    105  C   UNK A  1       -4.756   0.755  -6.009  0.00  0.00    +0.000 A 
ATOM    106  C   UNK A  1       -3.836   1.582  -5.372  0.00  0.00    +0.000 A 
ATOM    107  C   UNK A  1       -2.493   1.600  -5.780  0.00  0.00    +0.000 A 
ATOM    108  C   UNK A  1       -2.106   0.768  -6.838  0.00  0.00    +0.000 A 
ATOM    109  C   UNK A  1       -3.035  -0.055  -7.469  0.00  0.00    +0.000 A 
BRANCH 104 110
ATOM    110 SI   UNK A  1       -5.638  -1.178  -7.928  0.00  0.00    +0.000 Si
ATOM    111  F   UNK A  1       -7.075  -0.769  -7.306  0.00  0.00    +0.000 F 
BRANCH 110 113
ATOM    112  C   UNK A  1       -3.930  -3.475  -7.735  0.00  0.00    +0.000 C 
ATOM    113  C   UNK A  1       -5.378  -3.018  -7.450  0.00  0.00    +0.000 C 
ATOM    114  C   UNK A  1       -5.637  -3.174  -5.935  0.00  0.00    +0.000 C 
ATOM    115  C   UNK A  1       -6.354  -3.941  -8.208  0.00  0.00    +0.000 C 
ENDBRANCH 110 113
BRANCH 110 116
ATOM    116  C   UNK A  1       -5.790  -0.800  -9.806  0.00  0.00    +0.000 C 
ATOM    117  C   UNK A  1       -7.163  -1.254 -10.351  0.00  0.00    +0.000 C 
ATOM    118  C   UNK A  1       -5.680   0.726 -10.019  0.00  0.00    +0.000 C 
ATOM    119  C   UNK A  1       -4.678  -1.487 -10.627  0.00  0.00    +0.000 C 
ENDBRANCH 110 116
ENDBRANCH 104 110
ENDBRANCH 100 107
ENDBRANCH  99 101
ENDBRANCH   1  99
TORSDOF 54
