REMARK  Name = DB17134
REMARK                            x       y       z     vdW  Elec       q    Type
REMARK                         _______ _______ _______ _____ _____    ______ ____
ROOT
ATOM      1  C   LIG    1        1.203   0.044   0.093  0.00  0.00    -0.018 C 
ATOM      2  C   LIG    1        2.092   0.530   1.149  0.00  0.00    +0.072 C 
ATOM      3  N   LIG    1        3.368   0.003   0.756  0.00  0.00    -0.294 NA
ATOM      4  H   LIG    1        4.249   0.125   1.248  0.00  0.00    +0.124 HD
ATOM      5  C   LIG    1        3.247  -0.637  -0.369  0.00  0.00    +0.069 C 
ATOM      6  C   LIG    1        4.388  -1.171  -0.917  0.00  0.00    +0.045 C 
ATOM      7  C   LIG    1        5.424  -0.394  -1.323  0.00  0.00    +0.047 C 
ATOM      8  C   LIG    1        5.491   1.015  -1.936  0.00  0.00    +0.013 C 
ATOM      9  C   LIG    1        4.209   1.879  -1.901  0.00  0.00    +0.010 C 
ATOM     10  C   LIG    1        6.658   1.605  -1.169  0.00  0.00    +0.017 C 
ATOM     11  C   LIG    1        7.318   0.350  -0.647  0.00  0.00    +0.055 C 
ATOM     12  C   LIG    1        8.446   0.455   0.254  0.00  0.00    +0.076 C 
ATOM     13  C   LIG    1        9.763   0.175   0.002  0.00  0.00    +0.192 C 
ATOM     14  N   LIG    1       10.835   0.315   0.919  0.00  0.00    -0.269 N 
ATOM     15  C   LIG    1       10.640   0.764   2.225  0.00  0.00    +0.228 C 
ATOM     16  O   LIG    1       11.554   0.916   3.040  0.00  0.00    -0.275 OA
ATOM     17  C   LIG    1        9.237   1.051   2.533  0.00  0.00    +0.092 C 
ATOM     18  C   LIG    1        8.656   1.525   3.743  0.00  0.00    +0.013 C 
ATOM     19  C   LIG    1        7.272   1.621   3.539  0.00  0.00    +0.051 C 
ATOM     20  C   LIG    1        6.177   2.035   4.419  0.00  0.00    +0.040 C 
ATOM     21  C   LIG    1        4.837   1.991   4.235  0.00  0.00    +0.047 C 
ATOM     22  C   LIG    1        3.798   2.441   5.250  0.00  0.00    +0.016 C 
ATOM     23  C   LIG    1        2.499   2.458   4.452  0.00  0.00    +0.013 C 
ATOM     24  C   LIG    1        1.950   3.878   4.202  0.00  0.00    +0.010 C 
ATOM     25  C   LIG    1        2.884   1.706   3.204  0.00  0.00    +0.047 C 
ATOM     26  N   LIG    1        4.150   1.533   3.154  0.00  0.00    -0.301 NA
ATOM     27  H   LIG    1        4.329   0.533   3.065  0.00  0.00    +0.123 HD
ATOM     28  N   LIG    1        7.035   1.248   2.245  0.00  0.00    -0.299 NA
ATOM     29  H   LIG    1        6.123   1.228   1.814  0.00  0.00    +0.123 HD
ATOM     30  C   LIG    1        9.375   1.798   5.050  0.00  0.00    +0.015 C 
ATOM     31  C   LIG    1        8.202   0.907   1.615  0.00  0.00    +0.068 C 
ATOM     32  N   LIG    1        6.710  -0.704  -1.029  0.00  0.00    -0.300 NA
ATOM     33  H   LIG    1        7.169  -1.081  -1.858  0.00  0.00    +0.123 HD
ATOM     34  C   LIG    1        1.878   1.288   2.251  0.00  0.00    +0.045 C 
ATOM     35  C   LIG    1        1.948  -0.653  -0.807  0.00  0.00    -0.047 C 
ATOM     36  C   LIG    1        1.519  -1.360  -2.086  0.00  0.00    +0.041 C 
ENDROOT
BRANCH   1  37
ATOM     37  C   LIG    1       -0.297   0.319   0.021  0.00  0.00    +0.143 C 
ATOM     38  C   LIG    1       -1.078  -0.510   1.060  0.00  0.00    +0.043 C 
BRANCH  37  39
ATOM     39  O   LIG    1       -0.507   1.716   0.211  0.00  0.00    -0.372 OA
BRANCH  39  40
ATOM     40  C   LIG    1       -1.791   2.220  -0.142  0.00  0.00    +0.160 C 
BRANCH  40  41
ATOM     41  C   LIG    1       -1.815   3.740   0.088  0.00  0.00    +0.028 C 
BRANCH  41  43
ATOM     42  C   LIG    1       -1.614   5.656   1.780  0.00  0.00    +0.004 C 
ATOM     43  C   LIG    1       -1.589   4.138   1.558  0.00  0.00    -0.001 C 
ENDBRANCH  41  43
ENDBRANCH  40  41
ENDBRANCH  39  40
ENDBRANCH  37  39
ENDBRANCH   1  37
BRANCH  13  44
ATOM     44  O   LIG    1       10.153  -0.241  -1.166  0.00  0.00    -0.367 OA
ATOM     45  H   LIG    1        9.386  -0.320  -1.754  0.00  0.00    +0.212 HD
ENDBRANCH  13  44
BRANCH  22  46
ATOM     46  C   LIG    1        3.769   1.557   6.527  0.00  0.00    +0.002 C 
ATOM     47  C   LIG    1        3.534   0.051   6.301  0.00  0.00    +0.004 C 
ENDBRANCH  22  46
BRANCH  10  48
ATOM     48  C   LIG    1        7.606   2.525  -1.984  0.00  0.00    +0.017 C 
BRANCH  48  49
ATOM     49  C   LIG    1        6.968   3.852  -2.441  0.00  0.00    +0.121 C 
BRANCH  49  50
ATOM     50  C   LIG    1        7.988   4.811  -3.055  0.00  0.00    +0.307 C 
ATOM     51  O   LIG    1        8.105   4.921  -4.277  0.00  0.00    -0.251 OA
BRANCH  50  52
ATOM     52  O   LIG    1        8.698   5.476  -2.121  0.00  0.00    -0.468 OA
ATOM     53  C   LIG    1        9.702   6.404  -2.505  0.00  0.00    +0.280 C 
ENDBRANCH  50  52
ENDBRANCH  49  50
ENDBRANCH  48  49
ENDBRANCH  10  48
BRANCH  14  54
ATOM     54  C   LIG    1       12.278  -0.000   0.621  0.00  0.00    +0.111 C 
BRANCH  54  55
ATOM     55  C   LIG    1       13.044   1.126  -0.114  0.00  0.00    +0.019 C 
BRANCH  55  56
ATOM     56  C   LIG    1       13.163   2.452   0.660  0.00  0.00    -0.002 C 
ATOM     57  C   LIG    1       13.994   3.506  -0.084  0.00  0.00    +0.004 C 
ENDBRANCH  55  56
ENDBRANCH  54  55
ENDBRANCH  14  54
TORSDOF 14
