REMARK  Name = DB17493
REMARK                            x       y       z     vdW  Elec       q    Type
REMARK                         _______ _______ _______ _____ _____    ______ ____
ROOT
ATOM      1  C   LIG    1        3.453   0.520  -0.888  0.00  0.00    +0.136 A 
ATOM      2  O   LIG    1        2.161   0.933  -0.785  0.00  0.00    -0.455 OA
ATOM      3  C   LIG    1        1.480   0.057   0.002  0.00  0.00    +0.130 A 
ATOM      4  C   LIG    1        2.360  -0.936   0.408  0.00  0.00    +0.050 A 
ATOM      5  C   LIG    1        3.604  -0.645  -0.150  0.00  0.00    +0.050 A 
ENDROOT
BRANCH   1   7
ATOM      6  C   LIG    1        5.759   1.083  -1.693  0.00  0.00    +0.012 A 
ATOM      7  C   LIG    1        4.379   1.351  -1.710  0.00  0.00    +0.018 A 
ATOM      8  C   LIG    1        3.892   2.403  -2.503  0.00  0.00    +0.025 A 
ATOM      9  C   LIG    1        4.792   3.156  -3.256  0.00  0.00    +0.050 A 
ATOM     10  C   LIG    1        4.577   4.304  -4.173  0.00  0.00    +0.251 C 
ATOM     11  O   LIG    1        3.520   4.855  -4.474  0.00  0.00    -0.270 OA
ATOM     12  N   LIG    1        5.810   4.630  -4.621  0.00  0.00    -0.248 N 
ATOM     13  H   LIG    1        5.973   5.386  -5.269  0.00  0.00    +0.158 HD
ATOM     14  C   LIG    1        6.806   3.860  -4.131  0.00  0.00    +0.251 C 
ATOM     15  O   LIG    1        8.004   3.962  -4.390  0.00  0.00    -0.270 OA
ATOM     16  C   LIG    1        6.135   2.887  -3.232  0.00  0.00    +0.049 A 
ATOM     17  C   LIG    1        6.648   1.851  -2.454  0.00  0.00    +0.014 A 
ENDBRANCH   1   7
BRANCH   3  18
ATOM     18  C   LIG    1        0.069   0.275   0.275  0.00  0.00    +0.066 C 
ATOM     19  C   LIG    1       -0.733   1.279  -0.152  0.00  0.00    +0.081 C 
ATOM     20  S   LIG    1       -0.333   2.653  -1.177  0.00  0.00    -0.049 S 
ATOM     21  C   LIG    1       -1.988   3.283  -1.084  0.00  0.00    +0.165 C 
ATOM     22  N   LIG    1       -2.721   2.438  -0.308  0.00  0.00    -0.215 N 
ATOM     23  N   LIG    1       -2.287   4.354  -1.689  0.00  0.00    -0.279 NA
ATOM     24  H   LIG    1       -3.253   4.620  -1.565  0.00  0.00    +0.189 HD
ATOM     25  C   LIG    1       -2.126   1.337   0.227  0.00  0.00    +0.263 C 
ATOM     26  O   LIG    1       -2.703   0.506   0.938  0.00  0.00    -0.269 OA
BRANCH  22  27
ATOM     27  C   LIG    1       -4.088   2.689  -0.057  0.00  0.00    +0.044 A 
ATOM     28  C   LIG    1       -5.045   2.367  -1.027  0.00  0.00    +0.025 A 
ATOM     29  C   LIG    1       -6.392   2.616  -0.776  0.00  0.00    +0.017 A 
ATOM     30  C   LIG    1       -6.777   3.184   0.437  0.00  0.00    +0.018 A 
ATOM     31 BR   LIG    1       -8.620   3.522   0.776  0.00  0.00    -0.050 Br
ATOM     32  C   LIG    1       -5.827   3.506   1.405  0.00  0.00    +0.017 A 
ATOM     33  C   LIG    1       -4.479   3.259   1.160  0.00  0.00    +0.025 A 
ENDBRANCH  22  27
ENDBRANCH   3  18
TORSDOF 3
