REMARK  Name = DB17312
REMARK                            x       y       z     vdW  Elec       q    Type
REMARK                         _______ _______ _______ _____ _____    ______ ____
ROOT
ATOM      1  CA  PHE A  1       -6.254  -5.027   3.926  0.00  0.00    +0.222 C 
ATOM      2  N   PHE A  1       -7.311  -3.971   3.828  0.00  0.00    -0.238 NA
ATOM      3  C   PHE A  1       -7.566  -3.140   2.882  0.00  0.00    +0.209 C 
ATOM      4  CA  PHE A  1       -7.008  -2.970   1.439  0.00  0.00    +0.193 C 
ATOM      5  N   PHE A  1       -6.273  -1.697   1.383  0.00  0.00    -0.240 NA
ATOM      6  C   PHE A  1       -5.031  -1.506   1.148  0.00  0.00    +0.209 C 
ATOM      7  CA  PHE A  1       -4.460  -0.074   1.276  0.00  0.00    +0.198 C 
ATOM      8  N   PHE A  1       -3.333   0.100   0.365  0.00  0.00    -0.240 NA
ATOM      9  C   PHE A  1       -3.119   1.191  -0.270  0.00  0.00    +0.205 C 
ATOM     10  CA  PHE A  1       -1.959   1.284  -1.310  0.00  0.00    +0.162 C 
ATOM     11  N   PHE A  1       -0.607   1.645  -0.823  0.00  0.00    -0.302 N 
ATOM     12  H   PHE A  1       -0.059   2.360  -1.220  0.00  0.00    +0.150 HD
ATOM     13  C   PHE A  1       -0.211   0.901   0.206  0.00  0.00    +0.235 C 
ATOM     14  O   PHE A  1       -0.236   1.297   1.378  0.00  0.00    -0.274 OA
ATOM     15  CA  PHE A  1        0.462  -0.486  -0.009  0.00  0.00    +0.169 C 
ATOM     16  CB  PHE A  1       -0.131  -1.553   0.936  0.00  0.00    +0.112 C 
ATOM     17  SG  PHE A  1        0.088  -3.260   0.378  0.00  0.00    -0.091 S 
ATOM     18  SG  CYS A  2       -0.164  -4.360   2.072  0.00  0.00    -0.091 S 
ATOM     19  CB  CYS A  2       -1.963  -4.389   2.353  0.00  0.00    +0.112 C 
ATOM     20  CA  CYS A  2       -2.426  -5.276   3.543  0.00  0.00    +0.169 C 
ATOM     21  N   CYS A  2       -3.867  -5.586   3.575  0.00  0.00    -0.301 N 
ATOM     22  H   CYS A  2       -4.176  -6.517   3.488  0.00  0.00    +0.150 HD
ATOM     23  C   PHE A  1       -4.756  -4.588   3.724  0.00  0.00    +0.241 C 
ATOM     24  O   PHE A  1       -4.585  -3.357   3.772  0.00  0.00    -0.273 OA
ENDROOT
BRANCH  15  25
ATOM     25  N   PHE A  1        1.905  -0.398   0.216  0.00  0.00    -0.302 N 
ATOM     26  H   PHE A  1        2.206  -0.531   1.170  0.00  0.00    +0.150 HD
ATOM     27  C   PHE A  1        2.807  -0.057  -0.718  0.00  0.00    +0.234 C 
ATOM     28  O   PHE A  1        2.538   0.109  -1.908  0.00  0.00    -0.274 OA
BRANCH  27  29
ATOM     29  CA  PHE A  1        4.254   0.122  -0.212  0.00  0.00    +0.163 C 
BRANCH  29  30
ATOM     30  N   PHE A  1        4.910   1.325  -0.742  0.00  0.00    -0.303 N 
ATOM     31  H   PHE A  1        4.989   2.078  -0.074  0.00  0.00    +0.149 HD
ATOM     32  C   UNK A  0        5.339   1.562  -1.996  0.00  0.00    +0.228 C 
ATOM     33  O   UNK A  0        5.298   0.725  -2.900  0.00  0.00    -0.274 OA
BRANCH  32  34
ATOM     34  C   UNK A  0        5.891   2.982  -2.248  0.00  0.00    +0.180 C 
BRANCH  34  35
ATOM     35  N   UNK A  0        5.695   3.419  -3.634  0.00  0.00    -0.292 NA
ATOM     36  C   UNK A  0        6.623   4.500  -4.005  0.00  0.00    +0.100 C 
ATOM     37  C   UNK A  0        6.662   4.844  -5.517  0.00  0.00    +0.100 C 
ATOM     38  N   UNK A  0        7.146   6.215  -5.730  0.00  0.00    -0.292 NA
ATOM     39  C   UNK A  0        6.806   6.702  -7.075  0.00  0.00    +0.100 C 
ATOM     40  C   UNK A  0        5.300   7.012  -7.322  0.00  0.00    +0.100 C 
ATOM     41  N   UNK A  0        4.597   7.915  -6.382  0.00  0.00    -0.292 NA
ATOM     42  C   UNK A  0        4.142   7.291  -5.129  0.00  0.00    +0.100 C 
ATOM     43  C   UNK A  0        3.089   6.170  -5.357  0.00  0.00    +0.100 C 
ATOM     44  N   UNK A  0        2.582   5.517  -4.134  0.00  0.00    -0.292 NA
ATOM     45  C   UNK A  0        3.611   4.864  -3.309  0.00  0.00    +0.100 C 
ATOM     46  C   UNK A  0        4.285   3.652  -4.009  0.00  0.00    +0.100 C 
BRANCH  41  47
ATOM     47  C   UNK A  0        5.330   9.169  -6.120  0.00  0.00    +0.179 C 
BRANCH  47  48
ATOM     48  C   UNK A  0        5.328  10.202  -7.251  0.00  0.00    +0.194 C 
ATOM     49  N   UNK A  0        4.510  10.206  -8.216  0.00  0.00    -0.270 NA
ATOM     50  H   UNK A  0        4.659  10.971  -8.858  0.00  0.00    +0.190 HD
BRANCH  48  51
ATOM     51  O   UNK A  0        6.285  11.175  -7.120  0.00  0.00    -0.495 OA
ATOM     52  H   UNK A  0        6.225  11.796  -7.848  0.00  0.00    +0.293 HD
ENDBRANCH  48  51
ENDBRANCH  47  48
ENDBRANCH  41  47
BRANCH  44  53
ATOM     53  C   UNK A  0        1.711   6.397  -3.331  0.00  0.00    +0.179 C 
BRANCH  53  54
ATOM     54  C   UNK A  0        0.247   6.462  -3.781  0.00  0.00    +0.194 C 
ATOM     55  N   UNK A  0       -0.270   5.711  -4.658  0.00  0.00    -0.270 NA
ATOM     56  H   UNK A  0       -1.249   5.897  -4.814  0.00  0.00    +0.190 HD
BRANCH  54  57
ATOM     57  O   UNK A  0       -0.494   7.413  -3.128  0.00  0.00    -0.495 OA
ATOM     58  H   UNK A  0       -1.400   7.395  -3.443  0.00  0.00    +0.293 HD
ENDBRANCH  54  57
ENDBRANCH  53  54
ENDBRANCH  44  53
BRANCH  38  59
ATOM     59  C   UNK A  0        8.594   6.329  -5.490  0.00  0.00    +0.179 C 
BRANCH  59  60
ATOM     60  C   UNK A  0        9.015   7.709  -4.993  0.00  0.00    +0.194 C 
ATOM     61  N   UNK A  0        9.899   8.396  -5.573  0.00  0.00    -0.270 NA
ATOM     62  H   UNK A  0       10.063   9.281  -5.114  0.00  0.00    +0.190 HD
BRANCH  60  63
ATOM     63  O   UNK A  0        8.386   8.142  -3.853  0.00  0.00    -0.495 OA
ATOM     64  H   UNK A  0        7.723   7.502  -3.584  0.00  0.00    +0.293 HD
ENDBRANCH  60  63
ENDBRANCH  59  60
ENDBRANCH  38  59
ENDBRANCH  34  35
ENDBRANCH  32  34
ENDBRANCH  29  30
BRANCH  29  65
ATOM     65  CB  PHE A  1        5.146  -1.139  -0.362  0.00  0.00    +0.067 C 
BRANCH  65  66
ATOM     66  CG  PHE A  1        4.564  -2.443   0.160  0.00  0.00    -0.045 A 
ATOM     67  CD2 PHE A  1        3.962  -3.363  -0.725  0.00  0.00    +0.004 A 
ATOM     68  CE2 PHE A  1        3.384  -4.524  -0.230  0.00  0.00    +0.000 A 
ATOM     69  CZ  PHE A  1        3.365  -4.769   1.138  0.00  0.00    +0.000 A 
ATOM     70  CE1 PHE A  1        3.911  -3.849   2.024  0.00  0.00    +0.000 A 
ATOM     71  CD1 PHE A  1        4.502  -2.686   1.549  0.00  0.00    +0.004 A 
ENDBRANCH  65  66
ENDBRANCH  29  65
ENDBRANCH  27  29
ENDBRANCH  15  25
BRANCH   3  72
ATOM     72  O   PHE A  1       -8.564  -2.225   3.128  0.00  0.00    -0.494 OA
ATOM     73  H   PHE A  1       -8.649  -1.629   2.381  0.00  0.00    +0.293 HD
ENDBRANCH   3  72
BRANCH   6  74
ATOM     74  O   PHE A  1       -4.112  -2.485   0.847  0.00  0.00    -0.494 OA
ATOM     75  H   PHE A  1       -3.248  -2.087   0.716  0.00  0.00    +0.293 HD
ENDBRANCH   6  74
BRANCH   9  76
ATOM     76  O   PHE A  1       -3.856   2.346  -0.126  0.00  0.00    -0.494 OA
ATOM     77  H   PHE A  1       -3.482   3.038  -0.676  0.00  0.00    +0.293 HD
ENDBRANCH   9  76
BRANCH   1  79
ATOM     78  CG2 PHE A  1       -6.322  -7.637   4.179  0.00  0.00    +0.040 C 
ATOM     79  CB  PHE A  1       -6.634  -6.421   3.281  0.00  0.00    +0.145 C 
BRANCH  79  80
ATOM     80  OG1 PHE A  1       -8.010  -6.529   2.954  0.00  0.00    -0.389 OA
ATOM     81  HG1 PHE A  1       -8.516  -6.503   3.769  0.00  0.00    +0.210 HD
ENDBRANCH  79  80
ENDBRANCH   1  79
BRANCH  20  82
ATOM     82  C   CYS A  2       -1.821  -4.832   4.898  0.00  0.00    +0.205 C 
ATOM     83  N   THR A  3       -1.136  -5.647   5.609  0.00  0.00    -0.236 NA
BRANCH  82  84
ATOM     84  O   CYS A  2       -2.054  -3.514   5.234  0.00  0.00    -0.494 OA
ATOM     85  H   CYS A  2       -2.640  -3.115   4.585  0.00  0.00    +0.293 HD
ENDBRANCH  82  84
BRANCH  83  86
ATOM     86  CA  THR A  3       -0.472  -5.179   6.861  0.00  0.00    +0.245 C 
BRANCH  86  87
ATOM     87  C   THR A  3        0.830  -4.370   6.597  0.00  0.00    +0.332 C 
ATOM     88  O   THR A  3        1.125  -3.384   7.269  0.00  0.00    -0.249 OA
BRANCH  87  89
ATOM     89  OXT THR A  3        1.583  -4.876   5.574  0.00  0.00    -0.479 OA
ATOM     90  HXT THR A  3        2.375  -4.359   5.412  0.00  0.00    +0.295 HD
ENDBRANCH  87  89
ENDBRANCH  86  87
BRANCH  86  91
ATOM     91  CB  THR A  3       -0.114  -6.369   7.808  0.00  0.00    +0.147 C 
ATOM     92  CG2 THR A  3       -1.361  -7.086   8.354  0.00  0.00    +0.040 C 
BRANCH  91  93
ATOM     93  OG1 THR A  3        0.701  -7.350   7.185  0.00  0.00    -0.389 OA
ATOM     94  HG1 THR A  3        1.507  -6.928   6.879  0.00  0.00    +0.210 HD
ENDBRANCH  91  93
ENDBRANCH  86  91
ENDBRANCH  83  86
ENDBRANCH  20  82
BRANCH  10  95
ATOM     95  CB  PHE A  1       -1.952   0.068  -2.306  0.00  0.00    +0.067 C 
BRANCH  95  96
ATOM     96  CG  PHE A  1       -3.203  -0.090  -3.183  0.00  0.00    -0.045 A 
ATOM     97  CD2 PHE A  1       -4.261  -0.908  -2.765  0.00  0.00    +0.007 A 
ATOM     98  CE2 PHE A  1       -5.402  -1.034  -3.550  0.00  0.00    +0.045 A 
ATOM     99  CZ  PHE A  1       -5.478  -0.367  -4.771  0.00  0.00    +0.117 A 
ATOM    100  CE1 PHE A  1       -4.422   0.430  -5.210  0.00  0.00    +0.045 A 
ATOM    101  CD1 PHE A  1       -3.286   0.568  -4.417  0.00  0.00    +0.007 A 
BRANCH  99 102
ATOM    102  OH  PHE A  1       -6.600  -0.498  -5.547  0.00  0.00    -0.507 OA
ATOM    103  HH  PHE A  1       -7.259  -1.075  -5.155  0.00  0.00    +0.292 HD
ENDBRANCH  99 102
ENDBRANCH  95  96
ENDBRANCH  10  95
BRANCH   7 104
ATOM    104  CB  PHE A  1       -3.985   0.228   2.729  0.00  0.00    +0.073 C 
BRANCH 104 105
ATOM    105  CG  PHE A  1       -5.102   0.249   3.761  0.00  0.00    -0.020 A 
ATOM    106  CD2 PHE A  1       -6.283   1.079   3.765  0.00  0.00    +0.003 A 
ATOM    107  CE2 PHE A  1       -7.070   0.711   4.900  0.00  0.00    +0.047 A 
ATOM    108  NE1 PHE A  1       -6.371  -0.271   5.562  0.00  0.00    -0.360 N 
ATOM    109  HE1 PHE A  1       -6.636  -0.756   6.407  0.00  0.00    +0.165 HD
ATOM    110  CZ2 PHE A  1       -8.303   1.308   5.187  0.00  0.00    +0.026 A 
ATOM    111  CH2 PHE A  1       -8.743   2.302   4.313  0.00  0.00    +0.002 A 
ATOM    112  CZ3 PHE A  1       -7.994   2.691   3.206  0.00  0.00    +0.001 A 
ATOM    113  CE3 PHE A  1       -6.768   2.093   2.920  0.00  0.00    +0.010 A 
ATOM    114  CD1 PHE A  1       -5.199  -0.527   4.902  0.00  0.00    +0.087 A 
ENDBRANCH 104 105
ENDBRANCH   7 104
BRANCH   4 115
ATOM    115  CB  PHE A  1       -6.420  -4.242   0.748  0.00  0.00    +0.036 C 
BRANCH 115 116
ATOM    116  CG  PHE A  1       -6.279  -4.195  -0.793  0.00  0.00    +0.004 C 
BRANCH 116 117
ATOM    117  CD  PHE A  1       -7.611  -4.083  -1.559  0.00  0.00    +0.015 C 
BRANCH 117 118
ATOM    118  CE  PHE A  1       -7.462  -4.406  -3.056  0.00  0.00    +0.077 C 
BRANCH 118 119
ATOM    119  NZ  PHE A  1       -8.723  -4.205  -3.744  0.00  0.00    -0.330 NA
ATOM    120  HZ1 PHE A  1       -9.035  -3.253  -3.612  0.00  0.00    +0.118 HD
ATOM    121  HZ2 PHE A  1       -9.429  -4.799  -3.332  0.00  0.00    +0.118 HD
ENDBRANCH 118 119
ENDBRANCH 117 118
ENDBRANCH 116 117
ENDBRANCH 115 116
ENDBRANCH   4 115
TORSDOF 38
