REMARK  Name = DB17115
REMARK                            x       y       z     vdW  Elec       q    Type
REMARK                         _______ _______ _______ _____ _____    ______ ____
ROOT
ATOM      1  C   LIG    1        3.706   2.195  -2.934  0.00  0.00    +0.292 A 
ATOM      2  O   LIG    1        2.708   2.992  -2.470  0.00  0.00    -0.424 OA
ATOM      3  C   LIG    1        2.538   3.922  -3.440  0.00  0.00    +0.157 A 
ATOM      4  C   LIG    1        3.482   3.632  -4.416  0.00  0.00    +0.162 A 
ATOM      5  N   LIG    1        4.205   2.576  -4.085  0.00  0.00    -0.203 NA
ENDROOT
BRANCH   3   6
ATOM      6  C   LIG    1        1.478   4.954  -3.258  0.00  0.00    +0.019 A 
ATOM      7  C   LIG    1        0.646   4.937  -2.136  0.00  0.00    +0.013 A 
ATOM      8  C   LIG    1       -0.340   5.907  -1.980  0.00  0.00    +0.024 A 
ATOM      9  C   LIG    1       -0.511   6.922  -2.934  0.00  0.00    +0.038 A 
ATOM     10  C   LIG    1        0.318   6.913  -4.070  0.00  0.00    +0.024 A 
ATOM     11  C   LIG    1        1.305   5.944  -4.226  0.00  0.00    +0.013 A 
BRANCH   9  12
ATOM     12  N   LIG    1       -1.544   7.887  -2.752  0.00  0.00    -0.254 N 
ATOM     13  C   LIG    1       -1.524   9.171  -3.229  0.00  0.00    +0.307 C 
ATOM     14  O   LIG    1       -0.833   9.663  -4.119  0.00  0.00    -0.252 OA
ATOM     15  N   LIG    1       -2.491   9.816  -2.555  0.00  0.00    -0.297 N 
ATOM     16  H   LIG    1       -2.470  10.807  -2.366  0.00  0.00    +0.150 HD
ATOM     17  C   LIG    1       -3.450   8.955  -1.926  0.00  0.00    +0.125 C 
ATOM     18  C   LIG    1       -2.585   7.745  -1.732  0.00  0.00    +0.134 C 
ENDBRANCH   9  12
ENDBRANCH   3   6
BRANCH   1  19
ATOM     19  N   LIG    1        4.145   1.153  -2.150  0.00  0.00    -0.269 N 
ATOM     20  H   LIG    1        5.100   0.840  -2.253  0.00  0.00    +0.157 HD
BRANCH  19  26
ATOM     21  C   LIG    1        1.454   0.015   0.180  0.00  0.00    -0.020 A 
ATOM     22  C   LIG    1        2.211  -0.704   1.106  0.00  0.00    +0.006 A 
ATOM     23  C   LIG    1        3.591  -0.811   0.953  0.00  0.00    +0.005 A 
ATOM     24  C   LIG    1        4.238  -0.195  -0.124  0.00  0.00    -0.029 A 
ATOM     25  C   LIG    1        5.753  -0.333  -0.242  0.00  0.00    +0.045 C 
ATOM     26  C   LIG    1        3.489   0.540  -1.063  0.00  0.00    +0.038 A 
ATOM     27  C   LIG    1        2.096   0.616  -0.906  0.00  0.00    +0.029 A 
BRANCH  21  28
ATOM     28  C   LIG    1       -0.056   0.125   0.343  0.00  0.00    +0.195 C 
BRANCH  28  29
ATOM     29  O   LIG    1       -0.490   1.432  -0.016  0.00  0.00    -0.375 OA
BRANCH  29  31
ATOM     30  C   LIG    1       -2.234   3.041  -0.373  0.00  0.00    +0.034 C 
ATOM     31  C   LIG    1       -1.897   1.612   0.063  0.00  0.00    +0.157 C 
ENDBRANCH  29  31
ENDBRANCH  28  29
ENDBRANCH  21  28
ENDBRANCH  19  26
ENDBRANCH   1  19
TORSDOF 7
