REMARK  Name = DB17140
REMARK                            x       y       z     vdW  Elec       q    Type
REMARK                         _______ _______ _______ _____ _____    ______ ____
ROOT
ATOM      1  C   LIG    1        1.539   0.361  -0.524  0.00  0.00    -0.043 A 
ATOM      2  C   LIG    1        2.163  -0.617   0.256  0.00  0.00    +0.014 A 
ATOM      3  C   LIG    1        3.531  -0.559   0.547  0.00  0.00    -0.001 A 
ATOM      4  C   LIG    1        4.294   0.514   0.034  0.00  0.00    +0.041 A 
ATOM      5  C   LIG    1        3.667   1.490  -0.757  0.00  0.00    +0.024 A 
ATOM      6  C   LIG    1        2.303   1.416  -1.027  0.00  0.00    +0.006 A 
ENDROOT
BRANCH   1  11
ATOM      7  C   LIG    1       -2.759  -2.200   0.212  0.00  0.00    +0.199 C 
ATOM      8  N   LIG    1       -2.473  -1.082  -0.510  0.00  0.00    -0.303 N 
ATOM      9  C   LIG    1       -1.862  -1.111  -1.850  0.00  0.00    +0.108 C 
ATOM     10  C   LIG    1       -0.333  -0.985  -1.651  0.00  0.00    +0.027 C 
ATOM     11  C   LIG    1        0.041   0.273  -0.823  0.00  0.00    +0.022 C 
ATOM     12  C   LIG    1       -0.832   0.428   0.451  0.00  0.00    +0.027 C 
ATOM     13  C   LIG    1       -2.337   0.227   0.154  0.00  0.00    +0.108 C 
ATOM     14  O   LIG    1       -3.047  -2.143   1.412  0.00  0.00    -0.278 OA
BRANCH   7  15
ATOM     15  C   LIG    1       -2.705  -3.583  -0.490  0.00  0.00    +0.018 C 
BRANCH  15  17
ATOM     16  C   LIG    1       -5.062  -4.383  -0.051  0.00  0.00    -0.096 C 
ATOM     17  N   LIG    1       -3.557  -4.592   0.233  0.00  0.00    +0.382 N 
ATOM     18  H   LIG    1       -3.408  -4.491   1.228  0.00  0.00    -0.082 HD
ATOM     19  C   LIG    1       -3.131  -6.028  -0.137  0.00  0.00    -0.096 C 
ENDBRANCH  15  17
ENDBRANCH   7  15
ENDBRANCH   1  11
BRANCH   3  20
ATOM     20  C   LIG    1        4.100  -1.652   1.377  0.00  0.00    -0.042 C 
ATOM     21  C   LIG    1        4.168  -3.049   0.761  0.00  0.00    +0.035 C 
ATOM     22  C   LIG    1        4.460  -4.114   1.837  0.00  0.00    +0.005 C 
ATOM     23  C   LIG    1        5.713  -3.733   2.647  0.00  0.00    +0.004 C 
ATOM     24  C   LIG    1        5.588  -2.355   3.337  0.00  0.00    +0.027 C 
ATOM     25  C   LIG    1        4.815  -1.351   2.487  0.00  0.00    -0.023 C 
ENDBRANCH   3  20
BRANCH   4  26
ATOM     26  N   LIG    1        5.681   0.530   0.277  0.00  0.00    -0.278 N 
ATOM     27  H   LIG    1        6.084  -0.371   0.491  0.00  0.00    +0.155 HD
ATOM     28  C   LIG    1        6.516   1.590   0.386  0.00  0.00    +0.284 C 
ATOM     29  O   LIG    1        6.184   2.767   0.224  0.00  0.00    -0.267 OA
BRANCH  28  30
ATOM     30  C   LIG    1        7.885   1.230   0.721  0.00  0.00    +0.195 A 
ATOM     31  N   LIG    1        8.895   2.057   0.548  0.00  0.00    -0.231 NA
ATOM     32  C   LIG    1        9.929   1.389   0.980  0.00  0.00    +0.150 A 
ATOM     33  C   LIG    1        9.526   0.154   1.425  0.00  0.00    +0.137 A 
ATOM     34  N   LIG    1        8.233   0.074   1.261  0.00  0.00    -0.326 N 
ATOM     35  H   LIG    1        7.645  -0.682   1.489  0.00  0.00    +0.168 HD
BRANCH  33  36
ATOM     36  C   LIG    1       10.331  -0.917   1.990  0.00  0.00    +0.119 C 
ATOM     37  N   LIG    1       10.972  -1.769   2.440  0.00  0.00    -0.189 NA
ENDBRANCH  33  36
ENDBRANCH  28  30
ENDBRANCH   4  26
TORSDOF 7
