REMARK  Name = DB17078
REMARK                            x       y       z     vdW  Elec       q    Type
REMARK                         _______ _______ _______ _____ _____    ______ ____
ROOT
ATOM      1  C   LIG    1       -0.374  -0.495  -1.321  0.00  0.00    +0.059 C 
ATOM      2  C   LIG    1        0.082   0.160  -0.007  0.00  0.00    +0.225 C 
ENDROOT
BRANCH   2   3
ATOM      3  C   LIG    1       -0.324   1.628   0.066  0.00  0.00    +0.124 A 
ATOM      4  C   LIG    1       -0.113   2.644  -0.868  0.00  0.00    +0.080 A 
ATOM      5  C   LIG    1       -0.662   3.783  -0.317  0.00  0.00    +0.168 A 
ATOM      6  O   LIG    1       -1.194   3.444   0.886  0.00  0.00    -0.354 OA
ATOM      7  N   LIG    1       -0.982   2.084   1.111  0.00  0.00    -0.079 NA
BRANCH   5   8
ATOM      8  C   LIG    1       -0.771   5.203  -0.760  0.00  0.00    +0.021 A 
ATOM      9  C   LIG    1       -1.384   6.171   0.046  0.00  0.00    +0.012 A 
ATOM     10  C   LIG    1       -1.473   7.495  -0.383  0.00  0.00    +0.002 A 
ATOM     11  C   LIG    1       -0.952   7.865  -1.622  0.00  0.00    +0.020 A 
ATOM     12  C   LIG    1       -0.339   6.909  -2.433  0.00  0.00    +0.042 A 
ATOM     13 CL   LIG    1        0.308   7.364  -3.967  0.00  0.00    -0.084 Cl
ATOM     14  C   LIG    1       -0.249   5.584  -2.003  0.00  0.00    +0.031 A 
ENDBRANCH   5   8
ENDBRANCH   2   3
BRANCH   2  15
ATOM     15  O   LIG    1        1.509   0.039   0.054  0.00  0.00    -0.453 OA
BRANCH  15  16
ATOM     16  C   LIG    1        2.136   0.268   1.261  0.00  0.00    +0.319 A 
ATOM     17  N   LIG    1        3.503   0.350   1.375  0.00  0.00    -0.280 N 
ATOM     18  C   LIG    1        4.472   0.287   0.290  0.00  0.00    +0.155 C 
ATOM     19  C   LIG    1        3.705   0.612   2.720  0.00  0.00    +0.167 A 
ATOM     20  N   LIG    1        2.549   0.672   3.346  0.00  0.00    -0.126 NA
ATOM     21  N   LIG    1        1.541   0.436   2.418  0.00  0.00    -0.092 NA
BRANCH  19  22
ATOM     22  C   LIG    1        5.022   0.825   3.406  0.00  0.00    +0.022 A 
ATOM     23  C   LIG    1        6.191   0.164   3.000  0.00  0.00    +0.031 A 
ATOM     24  C   LIG    1        7.381   0.402   3.689  0.00  0.00    +0.111 A 
ATOM     25  N   LIG    1        7.466   1.247   4.747  0.00  0.00    -0.263 NA
ATOM     26  C   LIG    1        6.331   1.875   5.143  0.00  0.00    +0.111 A 
ATOM     27  C   LIG    1        5.101   1.691   4.508  0.00  0.00    +0.031 A 
ENDBRANCH  19  22
ENDBRANCH  15  16
ENDBRANCH   2  15
TORSDOF 5
