REMARK  Name = DB17602
REMARK                            x       y       z     vdW  Elec       q    Type
REMARK                         _______ _______ _______ _____ _____    ______ ____
ROOT
ATOM      1  N   LIG    1        3.277  -0.657   1.763  0.00  0.00    -0.313 N 
ATOM      2  H   LIG    1        3.992  -0.265   2.359  0.00  0.00    +0.149 HD
ATOM      3  C   LIG    1        3.663  -1.313   0.650  0.00  0.00    +0.244 C 
ATOM      4  O   LIG    1        2.860  -1.840  -0.123  0.00  0.00    -0.270 OA
ENDROOT
BRANCH   3   5
ATOM      5  C   LIG    1        5.151  -1.355   0.368  0.00  0.00    +0.037 A 
ATOM      6  C   LIG    1        5.606  -1.751  -0.897  0.00  0.00    +0.015 A 
ATOM      7  C   LIG    1        6.968  -1.802  -1.182  0.00  0.00    +0.024 A 
ATOM      8  C   LIG    1        7.906  -1.453  -0.199  0.00  0.00    +0.033 A 
ATOM      9  C   LIG    1        7.458  -1.064   1.065  0.00  0.00    +0.024 A 
ATOM     10  C   LIG    1        6.097  -1.014   1.347  0.00  0.00    +0.015 A 
BRANCH   8  11
ATOM     11  N   LIG    1        9.303  -1.473  -0.374  0.00  0.00    -0.286 N 
ATOM     12  H   LIG    1        9.827  -1.266   0.464  0.00  0.00    +0.155 HD
ATOM     13  C   LIG    1       10.033  -1.701  -1.487  0.00  0.00    +0.214 C 
ATOM     14  O   LIG    1        9.581  -1.926  -2.608  0.00  0.00    -0.276 OA
ATOM     15  C   LIG    1       11.547  -1.655  -1.302  0.00  0.00    +0.109 C 
ENDBRANCH   8  11
ENDBRANCH   3   5
BRANCH   1  16
ATOM     16  C   LIG    1        1.893  -0.475   2.206  0.00  0.00    +0.086 C 
BRANCH  16  17
ATOM     17  C   LIG    1        1.135   0.631   1.434  0.00  0.00    -0.060 C 
BRANCH  17  18
ATOM     18  N   LIG    1        0.440   0.052   0.175  0.00  0.00    +0.380 N 
ATOM     19  H   LIG    1        1.067  -0.650  -0.193  0.00  0.00    -0.082 HD
BRANCH  18  21
ATOM     20  C   LIG    1       -1.184  -1.765  -0.524  0.00  0.00    -0.017 C 
ATOM     21  C   LIG    1       -0.882  -0.678   0.520  0.00  0.00    -0.082 C 
ENDBRANCH  18  21
BRANCH  18  22
ATOM     22  C   LIG    1        0.260   1.104  -0.947  0.00  0.00    -0.082 C 
ATOM     23  C   LIG    1        1.595   1.365  -1.665  0.00  0.00    -0.017 C 
ENDBRANCH  18  22
ENDBRANCH  17  18
ENDBRANCH  16  17
ENDBRANCH   1  16
TORSDOF 7
