REMARK  Name = DB17024
REMARK                            x       y       z     vdW  Elec       q    Type
REMARK                         _______ _______ _______ _____ _____    ______ ____
ROOT
ATOM      1  C   LIG    1        1.434   0.042   0.065  0.00  0.00    +0.136 C 
ATOM      2  C   LIG    1        2.092  -1.192   0.008  0.00  0.00    +0.141 C 
ATOM      3  C   LIG    1        3.515  -1.250  -0.052  0.00  0.00    +0.040 C 
ATOM      4  C   LIG    1        4.201  -2.469  -0.119  0.00  0.00    +0.085 C 
ATOM      5  N   LIG    1        5.548  -2.553  -0.178  0.00  0.00    -0.292 NA
ATOM      6  C   LIG    1        6.390  -1.429  -0.086  0.00  0.00    +0.056 C 
ATOM      7  C   LIG    1        7.831  -1.465   0.023  0.00  0.00    +0.013 C 
ATOM      8  C   LIG    1        8.606  -2.642   0.333  0.00  0.00    +0.043 C 
ATOM      9  C   LIG    1        9.989  -2.567   0.358  0.00  0.00    +0.140 C 
ATOM     10  O   LIG    1       10.881  -3.553   0.639  0.00  0.00    -0.341 OA
ATOM     11  C   LIG    1       12.144  -3.012   0.362  0.00  0.00    +0.324 C 
ATOM     12  O   LIG    1       11.994  -1.622   0.265  0.00  0.00    -0.341 OA
ATOM     13  C   LIG    1       10.658  -1.407   0.138  0.00  0.00    +0.140 C 
ATOM     14  C   LIG    1        9.996  -0.217  -0.094  0.00  0.00    +0.041 C 
ATOM     15  C   LIG    1        8.571  -0.235  -0.129  0.00  0.00    -0.005 C 
ATOM     16  C   LIG    1        7.882   0.975  -0.285  0.00  0.00    +0.005 C 
ATOM     17  C   LIG    1        6.504   1.022  -0.245  0.00  0.00    +0.006 C 
ATOM     18  C   LIG    1        5.715  -0.154  -0.132  0.00  0.00    +0.010 C 
ATOM     19  C   LIG    1        6.036  -3.930  -0.448  0.00  0.00    +0.106 C 
ATOM     20  C   LIG    1        4.287  -0.059  -0.080  0.00  0.00    +0.000 C 
ATOM     21  C   LIG    1        3.579   1.181  -0.040  0.00  0.00    +0.008 C 
ATOM     22  C   LIG    1        2.192   1.217   0.034  0.00  0.00    +0.037 C 
ENDROOT
BRANCH   1  24
ATOM     23  C   LIG    1       -0.669   1.246   0.188  0.00  0.00    +0.195 C 
ATOM     24  O   LIG    1        0.054   0.020   0.157  0.00  0.00    -0.370 OA
ENDBRANCH   1  24
BRANCH   2  25
ATOM     25  O   LIG    1        1.365  -2.359   0.040  0.00  0.00    -0.370 OA
ATOM     26  C   LIG    1        0.783  -2.726  -1.205  0.00  0.00    +0.195 C 
ENDBRANCH   2  25
TORSDOF 2
