REMARK  Name = DB17015
REMARK                            x       y       z     vdW  Elec       q    Type
REMARK                         _______ _______ _______ _____ _____    ______ ____
ROOT
ATOM      1  C   LIG    1       -2.202   1.389  -0.167  0.00  0.00    -0.025 A 
ATOM      2  C   LIG    1       -2.847   0.152  -0.087  0.00  0.00    +0.011 A 
ATOM      3  C   LIG    1       -4.227   0.040   0.144  0.00  0.00    -0.043 A 
ATOM      4  C   LIG    1       -4.989   1.224   0.298  0.00  0.00    -0.044 A 
ATOM      5  C   LIG    1       -6.512   1.228   0.526  0.00  0.00    +0.040 C 
ATOM      6  C   LIG    1       -7.153   0.232   1.550  0.00  0.00    +0.017 C 
ATOM      7  C   LIG    1       -7.350  -1.237   1.078  0.00  0.00    +0.062 C 
ATOM      8  N   LIG    1       -7.808  -1.360  -0.281  0.00  0.00    -0.172 NA
ATOM      9  H   LIG    1       -7.016  -1.198  -0.903  0.00  0.00    +0.150 HD
ATOM     10  S   LIG    1       -8.423  -2.765  -0.615  0.00  0.00    +0.098 S 
ATOM     11  O   LIG    1       -7.432  -3.819  -0.873  0.00  0.00    -0.141 OA
ATOM     12  O   LIG    1       -9.538  -2.697  -1.565  0.00  0.00    -0.141 OA
ATOM     13  N   LIG    1       -9.039  -2.964   1.014  0.00  0.00    -0.156 NA
ATOM     14  C   LIG    1       -5.886  -1.728   1.297  0.00  0.00    +0.017 C 
ATOM     15  C   LIG    1       -5.487  -1.164   2.683  0.00  0.00    +0.006 C 
ATOM     16  C   LIG    1       -8.392  -2.017   1.923  0.00  0.00    +0.135 C 
ATOM     17  C   LIG    1       -6.326   0.114   2.853  0.00  0.00    +0.006 C 
ATOM     18  C   LIG    1       -4.333   2.459   0.209  0.00  0.00    +0.004 A 
ATOM     19  C   LIG    1       -4.843  -1.370   0.187  0.00  0.00    +0.041 C 
ATOM     20  C   LIG    1       -2.964   2.545  -0.015  0.00  0.00    +0.008 A 
ENDROOT
BRANCH   1  22
ATOM     21  C   LIG    1        0.177   0.556  -0.205  0.00  0.00    -0.045 C 
ATOM     22  C   LIG    1       -0.748   1.516  -0.394  0.00  0.00    +0.002 C 
BRANCH  21  23
ATOM     23  C   LIG    1        1.664   0.730  -0.457  0.00  0.00    -0.051 C 
BRANCH  23  24
ATOM     24  N   LIG    1        2.193  -0.074  -1.668  0.00  0.00    +0.382 N 
ATOM     25  H   LIG    1        1.632   0.157  -2.476  0.00  0.00    -0.081 HD
ATOM     26  C   LIG    1        3.650   0.349  -1.982  0.00  0.00    -0.078 C 
ATOM     27  C   LIG    1        4.151  -0.448  -3.200  0.00  0.00    -0.007 C 
ATOM     28  C   LIG    1        4.092  -1.969  -2.937  0.00  0.00    +0.090 C 
ATOM     29  C   LIG    1        2.619  -2.345  -2.662  0.00  0.00    -0.007 C 
ATOM     30  C   LIG    1        2.071  -1.602  -1.430  0.00  0.00    -0.078 C 
BRANCH  28  31
ATOM     31  C   LIG    1        4.704  -2.791  -4.098  0.00  0.00    +0.393 C 
ATOM     32  F   LIG    1        4.664  -4.099  -3.840  0.00  0.00    -0.170 F 
ATOM     33  F   LIG    1        5.982  -2.469  -4.301  0.00  0.00    -0.170 F 
ATOM     34  F   LIG    1        4.056  -2.591  -5.246  0.00  0.00    -0.170 F 
ENDBRANCH  28  31
ENDBRANCH  23  24
ENDBRANCH  21  23
ENDBRANCH   1  22
BRANCH  13  35
ATOM     35  C   LIG    1       -9.821  -4.137   1.483  0.00  0.00    +0.223 C 
BRANCH  35  36
ATOM     36  C   LIG    1      -10.998  -4.545   0.576  0.00  0.00    +0.404 C 
ATOM     37  F   LIG    1      -10.587  -5.097  -0.565  0.00  0.00    -0.169 F 
ATOM     38  F   LIG    1      -11.786  -3.511   0.282  0.00  0.00    -0.169 F 
ATOM     39  F   LIG    1      -11.753  -5.452   1.195  0.00  0.00    -0.169 F 
ENDBRANCH  35  36
ENDBRANCH  13  35
TORSDOF 6
