REMARK  Name = DB17825
REMARK                            x       y       z     vdW  Elec       q    Type
REMARK                         _______ _______ _______ _____ _____    ______ ____
ROOT
ATOM      1  C   LIG    1        1.523  -0.086   0.197  0.00  0.00    -0.037 A 
ATOM      2  C   LIG    1        2.155  -0.543  -0.977  0.00  0.00    +0.008 A 
ATOM      3  C   LIG    1        3.561  -0.492  -1.066  0.00  0.00    +0.128 A 
ATOM      4  C   LIG    1        4.339   0.010  -0.003  0.00  0.00    +0.043 A 
ATOM      5  C   LIG    1        3.684   0.460   1.156  0.00  0.00    +0.124 A 
ATOM      6  C   LIG    1        2.297   0.412   1.245  0.00  0.00    +0.049 A 
ENDROOT
BRANCH   4   7
ATOM      7  C   LIG    1        5.883   0.026  -0.084  0.00  0.00    +0.056 C 
ATOM      8  C   LIG    1        6.517  -1.398   0.004  0.00  0.00    +0.026 C 
ATOM      9  C   LIG    1        8.036  -1.340  -0.278  0.00  0.00    +0.013 C 
ATOM     10  C   LIG    1        8.285  -0.876  -1.728  0.00  0.00    +0.031 C 
ATOM     11  C   LIG    1        7.519   0.415  -2.023  0.00  0.00    -0.076 C 
ATOM     12  C   LIG    1        7.965   1.204  -3.241  0.00  0.00    +0.039 C 
ATOM     13  C   LIG    1        6.437   0.784  -1.297  0.00  0.00    -0.019 C 
BRANCH   8  14
ATOM     14  C   LIG    1        6.189  -2.128   1.313  0.00  0.00    -0.076 C 
ATOM     15  C   LIG    1        5.046  -3.131   1.245  0.00  0.00    +0.039 C 
ATOM     16  C   LIG    1        6.862  -1.913   2.459  0.00  0.00    +0.007 C 
ENDBRANCH   8  14
ENDBRANCH   4   7
BRANCH   3  17
ATOM     17  O   LIG    1        4.176  -0.963  -2.202  0.00  0.00    -0.506 OA
ATOM     18  H   LIG    1        3.561  -1.383  -2.806  0.00  0.00    +0.292 HD
ENDBRANCH   3  17
BRANCH   5  19
ATOM     19  O   LIG    1        4.372   0.946   2.240  0.00  0.00    -0.506 OA
ATOM     20  H   LIG    1        3.794   1.194   2.964  0.00  0.00    +0.292 HD
ENDBRANCH   5  19
BRANCH   1  21
ATOM     21  C   LIG    1        0.005  -0.112   0.380  0.00  0.00    +0.035 C 
BRANCH  21  22
ATOM     22  C   LIG    1       -0.683   1.176  -0.117  0.00  0.00    +0.005 C 
BRANCH  22  23
ATOM     23  C   LIG    1       -2.223   1.117  -0.097  0.00  0.00    +0.000 C 
BRANCH  23  25
ATOM     24  C   LIG    1       -4.372   1.006   1.294  0.00  0.00    +0.004 C 
ATOM     25  C   LIG    1       -2.837   1.001   1.312  0.00  0.00    -0.003 C 
ENDBRANCH  23  25
ENDBRANCH  22  23
ENDBRANCH  21  22
ENDBRANCH   1  21
BRANCH   2  26
ATOM     26  C   LIG    1        1.326  -1.101  -2.154  0.00  0.00    +0.159 C 
BRANCH  26  27
ATOM     27  C   LIG    1        1.024  -2.614  -2.024  0.00  0.00    +0.309 C 
ATOM     28  O   LIG    1       -0.108  -2.995  -2.399  0.00  0.00    -0.251 OA
BRANCH  27  29
ATOM     29  O   LIG    1        1.917  -3.382  -1.594  0.00  0.00    -0.480 OA
ATOM     30  H   LIG    1        2.745  -3.034  -1.327  0.00  0.00    +0.295 HD
ENDBRANCH  27  29
ENDBRANCH  26  27
ENDBRANCH   2  26
TORSDOF 11
