REMARK  Name = DB17882
REMARK                            x       y       z     vdW  Elec       q    Type
REMARK                         _______ _______ _______ _____ _____    ______ ____
ROOT
ATOM      1  C   GLU A  2        1.183  -0.480   0.822  0.00  0.00    +0.234 C 
ATOM      2  N   ASP A  3        1.814   0.631   0.412  0.00  0.00    -0.302 N 
ATOM      3  H   ASP A  3        1.270   1.393   0.032  0.00  0.00    +0.150 HD
ATOM      4  O   GLU A  2        1.749  -1.469   1.289  0.00  0.00    -0.274 OA
ENDROOT
BRANCH   1   5
ATOM      5  CA  GLU A  2       -0.345  -0.476   0.638  0.00  0.00    +0.159 C 
BRANCH   5   7
ATOM      6  C   ALA A  1       -0.762   0.271  -1.709  0.00  0.00    +0.199 C 
ATOM      7  N   GLU A  2       -0.688  -0.689  -0.770  0.00  0.00    -0.305 N 
ATOM      8  H   GLU A  2       -0.861  -1.649  -1.030  0.00  0.00    +0.149 HD
ATOM      9  O   ALA A  1       -0.547   1.467  -1.481  0.00  0.00    -0.278 OA
BRANCH   6  11
ATOM     10  CB  ALA A  1        0.136  -0.436  -4.003  0.00  0.00    -0.005 C 
ATOM     11  CA  ALA A  1       -1.118  -0.236  -3.129  0.00  0.00    +0.010 C 
BRANCH  11  12
ATOM     12  N   ALA A  1       -2.048   0.772  -3.747  0.00  0.00    +0.385 N 
ATOM     13  H1  ALA A  1       -1.601   1.678  -3.728  0.00  0.00    -0.089 HD
ATOM     14  H2  ALA A  1       -2.237   0.504  -4.702  0.00  0.00    -0.089 HD
ATOM     15  H3  ALA A  1       -2.908   0.797  -3.218  0.00  0.00    -0.089 HD
ENDBRANCH  11  12
ENDBRANCH   6  11
ENDBRANCH   5   7
BRANCH   5  16
ATOM     16  CB  GLU A  2       -1.054  -1.545   1.501  0.00  0.00    +0.043 C 
BRANCH  16  17
ATOM     17  CG  GLU A  2       -2.598  -1.462   1.430  0.00  0.00    +0.123 C 
BRANCH  17  18
ATOM     18  CD  GLU A  2       -3.363  -2.505   2.265  0.00  0.00    +0.305 C 
ATOM     19  OE2 GLU A  2       -4.611  -2.445   2.209  0.00  0.00    -0.251 OA
BRANCH  18  20
ATOM     20  OE1 GLU A  2       -2.722  -3.346   2.936  0.00  0.00    -0.481 OA
ATOM     21  HE1 GLU A  2       -3.180  -3.985   3.446  0.00  0.00    +0.295 HD
ENDBRANCH  18  20
ENDBRANCH  17  18
ENDBRANCH  16  17
ENDBRANCH   5  16
ENDBRANCH   1   5
BRANCH   2  22
ATOM     22  CA  ASP A  3        3.262   0.849   0.450  0.00  0.00    +0.169 C 
BRANCH  22  23
ATOM     23  C   ASP A  3        3.686   1.377   1.829  0.00  0.00    +0.234 C 
ATOM     24  N   GLY A  4        4.829   0.871   2.324  0.00  0.00    -0.303 N 
ATOM     25  H   GLY A  4        5.340   0.196   1.774  0.00  0.00    +0.149 HD
ATOM     26  O   ASP A  3        3.001   2.230   2.395  0.00  0.00    -0.274 OA
BRANCH  24  27
ATOM     27  CA  GLY A  4        5.421   1.243   3.619  0.00  0.00    +0.224 C 
BRANCH  27  28
ATOM     28  C   GLY A  4        4.795   0.540   4.854  0.00  0.00    +0.322 C 
ATOM     29  OXT GLY A  4        5.113   1.013   5.968  0.00  0.00    -0.249 OA
BRANCH  28  30
ATOM     30  O   GLY A  4        4.047  -0.456   4.708  0.00  0.00    -0.480 OA
ATOM     31  H   GLY A  4        3.673  -0.875   5.458  0.00  0.00    +0.295 HD
ENDBRANCH  28  30
ENDBRANCH  27  28
ENDBRANCH  24  27
ENDBRANCH  22  23
BRANCH  22  32
ATOM     32  CB  ASP A  3        3.738   1.822  -0.661  0.00  0.00    +0.152 C 
BRANCH  32  33
ATOM     33  CG  ASP A  3        3.314   1.472  -2.103  0.00  0.00    +0.307 C 
ATOM     34  OD2 ASP A  3        3.353   2.404  -2.937  0.00  0.00    -0.251 OA
BRANCH  33  35
ATOM     35  OD1 ASP A  3        3.101   0.274  -2.397  0.00  0.00    -0.481 OA
ATOM     36  HD1 ASP A  3        2.843   0.044  -3.267  0.00  0.00    +0.295 HD
ENDBRANCH  33  35
ENDBRANCH  32  33
ENDBRANCH  22  32
ENDBRANCH   2  22
TORSDOF 16
