REMARK  Name = DB17039
REMARK                            x       y       z     vdW  Elec       q    Type
REMARK                         _______ _______ _______ _____ _____    ______ ____
ROOT
ATOM      1  C   LIG    1        1.385   0.125  -0.039  0.00  0.00    +0.328 C 
ATOM      2  N   LIG    1        2.190   0.890   0.768  0.00  0.00    -0.128 N 
ATOM      3  C   LIG    1        1.885   1.609   1.892  0.00  0.00    +0.398 C 
ATOM      4  N   LIG    1        1.051   1.056   2.822  0.00  0.00    -0.255 N 
ATOM      5  C   LIG    1        0.467   1.928   3.860  0.00  0.00    +0.207 C 
ATOM      6  C   LIG    1       -0.741   1.345   4.628  0.00  0.00    +0.231 C 
ATOM      7  O   LIG    1       -1.435   2.024   5.380  0.00  0.00    -0.274 OA
ATOM      8  N   LIG    1       -0.990   0.031   4.447  0.00  0.00    -0.313 N 
ATOM      9  H   LIG    1       -1.768  -0.357   4.960  0.00  0.00    +0.149 HD
ATOM     10  C   LIG    1       -0.291  -0.854   3.506  0.00  0.00    +0.123 C 
ATOM     11  C   LIG    1        1.139  -0.366   3.186  0.00  0.00    +0.130 C 
ATOM     12  O   LIG    1        2.365   2.736   2.052  0.00  0.00    -0.223 OA
ATOM     13  C   LIG    1        3.574   0.784   0.311  0.00  0.00    +0.261 C 
ATOM     14  C   LIG    1        3.458  -0.462  -0.573  0.00  0.00    +0.303 C 
ATOM     15  N   LIG    1        2.048  -0.649  -0.809  0.00  0.00    -0.069 NA
ENDROOT
BRANCH  13  16
ATOM     16  C   LIG    1        4.145   2.058  -0.335  0.00  0.00    +0.000 A 
ATOM     17  C   LIG    1        3.382   2.830  -1.220  0.00  0.00    +0.009 A 
ATOM     18  C   LIG    1        3.922   3.979  -1.789  0.00  0.00    +0.020 A 
ATOM     19  C   LIG    1        5.224   4.361  -1.472  0.00  0.00    +0.041 A 
ATOM     20 CL   LIG    1        5.896   5.784  -2.180  0.00  0.00    -0.084 Cl
ATOM     21  C   LIG    1        5.988   3.602  -0.586  0.00  0.00    +0.020 A 
ATOM     22  C   LIG    1        5.447   2.453  -0.017  0.00  0.00    +0.009 A 
ENDBRANCH  13  16
BRANCH  14  23
ATOM     23  C   LIG    1        4.295  -0.476  -1.864  0.00  0.00    +0.005 A 
ATOM     24  C   LIG    1        3.747  -0.160  -3.116  0.00  0.00    +0.009 A 
ATOM     25  C   LIG    1        4.550  -0.155  -4.253  0.00  0.00    +0.020 A 
ATOM     26  C   LIG    1        5.904  -0.464  -4.144  0.00  0.00    +0.041 A 
ATOM     27 CL   LIG    1        6.901  -0.453  -5.553  0.00  0.00    -0.084 Cl
ATOM     28  C   LIG    1        6.460  -0.778  -2.906  0.00  0.00    +0.020 A 
ATOM     29  C   LIG    1        5.656  -0.784  -1.770  0.00  0.00    +0.009 A 
ENDBRANCH  14  23
BRANCH   1  33
ATOM     30  C   LIG    1       -2.905   0.448  -0.086  0.00  0.00    +0.124 A 
ATOM     31  C   LIG    1       -2.093   1.579  -0.083  0.00  0.00    +0.047 A 
ATOM     32  C   LIG    1       -0.708   1.460  -0.067  0.00  0.00    +0.023 A 
ATOM     33  C   LIG    1       -0.096   0.199  -0.045  0.00  0.00    +0.107 A 
ATOM     34  C   LIG    1       -0.899  -0.962  -0.059  0.00  0.00    +0.139 A 
ATOM     35  C   LIG    1       -2.298  -0.817  -0.076  0.00  0.00    +0.092 A 
BRANCH  30  37
ATOM     36  C   LIG    1       -5.152  -0.453  -0.089  0.00  0.00    +0.277 C 
ATOM     37  O   LIG    1       -4.269   0.664  -0.099  0.00  0.00    -0.495 OA
ENDBRANCH  30  37
BRANCH  34  38
ATOM     38  O   LIG    1       -0.263  -2.195  -0.009  0.00  0.00    -0.488 OA
BRANCH  38  39
ATOM     39  C   LIG    1       -0.989  -3.424  -0.042  0.00  0.00    +0.167 C 
ATOM     40  C   LIG    1       -1.472  -3.737  -1.472  0.00  0.00    +0.051 C 
ATOM     41  C   LIG    1       -0.037  -4.506   0.486  0.00  0.00    +0.051 C 
ENDBRANCH  38  39
ENDBRANCH  34  38
ENDBRANCH   1  33
TORSDOF 6
