REMARK  Name = DB17796
REMARK                            x       y       z     vdW  Elec       q    Type
REMARK                         _______ _______ _______ _____ _____    ______ ____
ROOT
ATOM      1  CA  LEU A  6       -5.168  -1.152   1.396  0.00  0.00    +0.159 C 
ATOM      2  C   LEU A  6       -5.825  -0.634   0.104  0.00  0.00    +0.234 C 
ATOM      3  O   LEU A  6       -5.193  -0.627  -0.955  0.00  0.00    -0.274 OA
ATOM      4  N   PHE A  1       -7.085  -0.174   0.231  0.00  0.00    -0.302 N 
ATOM      5  H   PHE A  1       -7.530  -0.237   1.135  0.00  0.00    +0.150 HD
ATOM      6  CA  PHE A  1       -7.874   0.514  -0.805  0.00  0.00    +0.163 C 
ATOM      7  C   PHE A  1       -7.194   1.817  -1.291  0.00  0.00    +0.234 C 
ATOM      8  O   PHE A  1       -7.162   2.094  -2.490  0.00  0.00    -0.274 OA
ATOM      9  N   UNK A  2       -6.631   2.566  -0.329  0.00  0.00    -0.302 N 
ATOM     10  H   UNK A  2       -6.720   2.266   0.632  0.00  0.00    +0.150 HD
ATOM     11  C   UNK A  2       -5.717   3.686  -0.540  0.00  0.00    +0.159 C 
ATOM     12  C   UNK A  2       -4.502   3.443   0.365  0.00  0.00    +0.234 C 
ATOM     13  O   UNK A  2       -4.693   3.180   1.553  0.00  0.00    -0.274 OA
ATOM     14  N   UNK A  3       -3.292   3.534  -0.221  0.00  0.00    -0.302 N 
ATOM     15  H   UNK A  3       -3.260   3.779  -1.200  0.00  0.00    +0.150 HD
ATOM     16  C   UNK A  3       -1.986   3.168   0.357  0.00  0.00    +0.159 C 
ATOM     17  C   UNK A  3       -1.711   1.656   0.170  0.00  0.00    +0.234 C 
ATOM     18  O   UNK A  3       -2.602   0.912  -0.242  0.00  0.00    -0.274 OA
ATOM     19  N   UNK A  4       -0.462   1.237   0.440  0.00  0.00    -0.302 N 
ATOM     20  H   UNK A  4        0.212   1.915   0.762  0.00  0.00    +0.150 HD
ATOM     21  C   UNK A  4        0.039  -0.138   0.337  0.00  0.00    +0.159 C 
ATOM     22  C   UNK A  4       -0.753  -1.126   1.216  0.00  0.00    +0.234 C 
ATOM     23  O   UNK A  4       -0.943  -0.862   2.404  0.00  0.00    -0.274 OA
ATOM     24  N   ASN A  5       -1.187  -2.241   0.596  0.00  0.00    -0.302 N 
ATOM     25  H   ASN A  5       -0.970  -2.352  -0.385  0.00  0.00    +0.150 HD
ATOM     26  CA  ASN A  5       -1.982  -3.341   1.174  0.00  0.00    +0.168 C 
ATOM     27  C   ASN A  5       -3.405  -2.918   1.610  0.00  0.00    +0.234 C 
ATOM     28  O   ASN A  5       -4.026  -3.616   2.411  0.00  0.00    -0.274 OA
ATOM     29  N   LEU A  6       -3.891  -1.786   1.075  0.00  0.00    -0.302 N 
ATOM     30  H   LEU A  6       -3.324  -1.283   0.407  0.00  0.00    +0.150 HD
ENDROOT
BRANCH   1  31
ATOM     31  CB  LEU A  6       -4.906   0.022   2.374  0.00  0.00    +0.034 C 
BRANCH  31  33
ATOM     32  CD1 LEU A  6       -5.482  -1.202   4.555  0.00  0.00    +0.007 C 
ATOM     33  CG  LEU A  6       -4.432  -0.364   3.793  0.00  0.00    -0.015 C 
ATOM     34  CD2 LEU A  6       -3.985   0.888   4.581  0.00  0.00    +0.007 C 
ENDBRANCH  31  33
ENDBRANCH   1  31
BRANCH   6  35
ATOM     35  CB  PHE A  1       -8.250  -0.447  -1.962  0.00  0.00    +0.067 C 
BRANCH  35  36
ATOM     36  CG  PHE A  1       -9.096  -1.637  -1.543  0.00  0.00    -0.045 A 
ATOM     37  CD2 PHE A  1      -10.488  -1.490  -1.365  0.00  0.00    +0.004 A 
ATOM     38  CE2 PHE A  1      -11.245  -2.554  -0.893  0.00  0.00    +0.000 A 
ATOM     39  CZ  PHE A  1      -10.632  -3.758  -0.567  0.00  0.00    +0.000 A 
ATOM     40  CE1 PHE A  1       -9.257  -3.905  -0.698  0.00  0.00    +0.000 A 
ATOM     41  CD1 PHE A  1       -8.483  -2.853  -1.169  0.00  0.00    +0.004 A 
ENDBRANCH  35  36
ENDBRANCH   6  35
BRANCH  11  42
ATOM     42  C   UNK A  2       -6.364   5.051  -0.221  0.00  0.00    +0.033 C 
BRANCH  42  43
ATOM     43  C   UNK A  2       -7.583   5.379  -1.104  0.00  0.00    +0.024 C 
BRANCH  43  44
ATOM     44  C   UNK A  2       -8.172   6.771  -0.810  0.00  0.00    +0.140 C 
BRANCH  44  45
ATOM     45  N   UNK A  2       -9.351   7.078  -1.623  0.00  0.00    -0.184 N 
ATOM     46  C   UNK A  2       -9.360   7.641  -2.855  0.00  0.00    +0.235 C 
ATOM     47  O   UNK A  2       -8.327   8.017  -3.410  0.00  0.00    -0.274 OA
ATOM     48  C   UNK A  2      -10.690   7.834  -3.595  0.00  0.00    +0.111 C 
BRANCH  45  49
ATOM     49  O   UNK A  2      -10.559   6.549  -1.149  0.00  0.00    -0.292 OA
ATOM     50  H   UNK A  2      -10.363   5.614  -1.050  0.00  0.00    +0.242 HD
ENDBRANCH  45  49
ENDBRANCH  44  45
ENDBRANCH  43  44
ENDBRANCH  42  43
ENDBRANCH  11  42
BRANCH  16  51
ATOM     51  C   UNK A  3       -1.807   3.655   1.824  0.00  0.00    +0.033 C 
BRANCH  51  52
ATOM     52  C   UNK A  3       -0.353   3.808   2.323  0.00  0.00    +0.024 C 
BRANCH  52  53
ATOM     53  C   UNK A  3       -0.222   4.401   3.746  0.00  0.00    +0.140 C 
BRANCH  53  54
ATOM     54  N   UNK A  3       -0.741   5.768   3.892  0.00  0.00    -0.184 N 
ATOM     55  C   UNK A  3       -1.965   6.165   4.326  0.00  0.00    +0.235 C 
ATOM     56  O   UNK A  3       -2.371   7.327   4.246  0.00  0.00    -0.274 OA
ATOM     57  C   UNK A  3       -2.893   5.125   4.960  0.00  0.00    +0.111 C 
BRANCH  54  58
ATOM     58  O   UNK A  3       -0.001   6.742   3.207  0.00  0.00    -0.292 OA
ATOM     59  H   UNK A  3       -0.682   7.293   2.813  0.00  0.00    +0.242 HD
ENDBRANCH  54  58
ENDBRANCH  53  54
ENDBRANCH  52  53
ENDBRANCH  51  52
ENDBRANCH  16  51
BRANCH  21  60
ATOM     60  C   UNK A  4        1.556  -0.175   0.649  0.00  0.00    +0.033 C 
BRANCH  60  61
ATOM     61  C   UNK A  4        2.245  -1.562   0.638  0.00  0.00    +0.024 C 
BRANCH  61  62
ATOM     62  C   UNK A  4        2.164  -2.347  -0.690  0.00  0.00    +0.140 C 
BRANCH  62  63
ATOM     63  N   UNK A  4        2.711  -1.617  -1.839  0.00  0.00    -0.184 N 
ATOM     64  C   UNK A  4        2.044  -1.193  -2.940  0.00  0.00    +0.235 C 
ATOM     65  O   UNK A  4        0.832  -1.359  -3.078  0.00  0.00    -0.274 OA
ATOM     66  C   UNK A  4        2.804  -0.468  -4.058  0.00  0.00    +0.111 C 
BRANCH  63  67
ATOM     67  O   UNK A  4        4.101  -1.438  -1.822  0.00  0.00    -0.292 OA
ATOM     68  H   UNK A  4        4.232  -0.820  -1.099  0.00  0.00    +0.242 HD
ENDBRANCH  63  67
ENDBRANCH  62  63
ENDBRANCH  61  62
ENDBRANCH  60  61
ENDBRANCH  21  60
BRANCH  26  69
ATOM     69  CB  ASN A  5       -1.216  -4.069   2.317  0.00  0.00    +0.127 C 
BRANCH  69  70
ATOM     70  CG  ASN A  5        0.155  -4.630   1.915  0.00  0.00    +0.213 C 
ATOM     71  OD1 ASN A  5        0.389  -4.972   0.757  0.00  0.00    -0.276 OA
ATOM     72  ND2 ASN A  5        1.066  -4.742   2.885  0.00  0.00    -0.329 N 
ATOM     73 HD21 ASN A  5        1.982  -5.114   2.680  0.00  0.00    +0.145 HD
ATOM     74 HD22 ASN A  5        0.845  -4.460   3.829  0.00  0.00    +0.145 HD
ENDBRANCH  69  70
ENDBRANCH  26  69
TORSDOF 21
