REMARK  Name = DB17619
REMARK                            x       y       z     vdW  Elec       q    Type
REMARK                         _______ _______ _______ _____ _____    ______ ____
ROOT
ATOM      1  N   LIG    1        1.478  -0.056   0.189  0.00  0.00    +0.386 N 
ATOM      2  H   LIG    1        1.807   0.432  -0.632  0.00  0.00    -0.081 HD
ATOM      3  C   LIG    1        2.142   0.660   1.413  0.00  0.00    -0.011 C 
ATOM      4  C   LIG    1        3.683   0.642   1.187  0.00  0.00    +0.134 C 
ATOM      5  C   LIG    1        4.248  -0.790   0.966  0.00  0.00    +0.168 C 
ATOM      6  C   LIG    1        3.502  -1.492  -0.198  0.00  0.00    +0.129 C 
ATOM      7  C   LIG    1        1.974  -1.514   0.017  0.00  0.00    -0.044 C 
ENDROOT
BRANCH   4   8
ATOM      8  O   LIG    1        4.363   1.328   2.225  0.00  0.00    -0.391 OA
ATOM      9  H   LIG    1        4.181   2.267   2.147  0.00  0.00    +0.210 HD
ENDBRANCH   4   8
BRANCH   5  10
ATOM     10  O   LIG    1        5.648  -0.768   0.737  0.00  0.00    -0.387 OA
ATOM     11  H   LIG    1        5.824  -0.274  -0.066  0.00  0.00    +0.210 HD
ENDBRANCH   5  10
BRANCH   6  12
ATOM     12  O   LIG    1        3.971  -2.807  -0.426  0.00  0.00    -0.391 OA
ATOM     13  H   LIG    1        3.942  -3.294   0.402  0.00  0.00    +0.210 HD
ENDBRANCH   6  12
BRANCH   1  14
ATOM     14  C   LIG    1       -0.069  -0.007   0.107  0.00  0.00    -0.078 C 
BRANCH  14  15
ATOM     15  C   LIG    1       -0.602   1.438   0.130  0.00  0.00    -0.019 C 
BRANCH  15  16
ATOM     16  C   LIG    1       -2.120   1.508  -0.106  0.00  0.00    -0.002 C 
BRANCH  16  18
ATOM     17  C   LIG    1       -4.181   3.021  -0.290  0.00  0.00    +0.004 C 
ATOM     18  C   LIG    1       -2.661   2.949  -0.089  0.00  0.00    -0.003 C 
ENDBRANCH  16  18
ENDBRANCH  15  16
ENDBRANCH  14  15
ENDBRANCH   1  14
BRANCH   3  19
ATOM     19  C   LIG    1        1.711   0.040   2.781  0.00  0.00    +0.143 C 
BRANCH  19  20
ATOM     20  O   LIG    1        0.356   0.262   3.113  0.00  0.00    -0.397 OA
ATOM     21  H   LIG    1        0.246   1.183   3.358  0.00  0.00    +0.209 HD
ENDBRANCH  19  20
ENDBRANCH   3  19
TORSDOF 9
