REMARK  Name = DB17021
REMARK                            x       y       z     vdW  Elec       q    Type
REMARK                         _______ _______ _______ _____ _____    ______ ____
ROOT
ATOM      1  C   LIG    1       -3.291  -1.781   3.630  0.00  0.00    +0.088 C 
ATOM      2  C   LIG    1       -1.944  -1.391   3.058  0.00  0.00    +0.135 A 
ATOM      3  N   LIG    1       -1.731  -0.866   1.798  0.00  0.00    -0.275 N 
ATOM      4  C   LIG    1       -2.614  -0.568   0.771  0.00  0.00    +0.097 A 
ATOM      5  S   LIG    1       -3.936  -1.572   0.295  0.00  0.00    -0.075 S 
ATOM      6  C   LIG    1       -4.375  -0.509  -0.999  0.00  0.00    -0.008 A 
ATOM      7  C   LIG    1       -3.523   0.602  -1.061  0.00  0.00    -0.029 A 
ATOM      8  C   LIG    1       -3.615   1.628  -2.182  0.00  0.00    +0.045 C 
ATOM      9  C   LIG    1       -5.553  -0.868  -1.880  0.00  0.00    +0.052 C 
ATOM     10  C   LIG    1       -2.523   0.582  -0.046  0.00  0.00    +0.035 A 
ATOM     11  C   LIG    1       -1.479   1.633   0.164  0.00  0.00    +0.076 C 
ATOM     12  N   LIG    1       -0.238   1.420   0.435  0.00  0.00    -0.271 NA
ATOM     13  C   LIG    1        0.269   0.052   0.558  0.00  0.00    +0.184 C 
ATOM     14  C   LIG    1       -0.371  -0.637   1.764  0.00  0.00    +0.164 A 
ATOM     15  N   LIG    1        0.192  -1.010   2.889  0.00  0.00    -0.132 NA
ATOM     16  N   LIG    1       -0.815  -1.499   3.714  0.00  0.00    -0.134 NA
ENDROOT
BRANCH  11  17
ATOM     17  C   LIG    1       -1.956   3.031   0.074  0.00  0.00    +0.001 A 
ATOM     18  C   LIG    1       -1.181   4.000  -0.580  0.00  0.00    +0.011 A 
ATOM     19  C   LIG    1       -1.625   5.316  -0.664  0.00  0.00    +0.020 A 
ATOM     20  C   LIG    1       -2.841   5.675  -0.088  0.00  0.00    +0.041 A 
ATOM     21 CL   LIG    1       -3.391   7.307  -0.194  0.00  0.00    -0.084 Cl
ATOM     22  C   LIG    1       -3.616   4.726   0.574  0.00  0.00    +0.020 A 
ATOM     23  C   LIG    1       -3.174   3.409   0.659  0.00  0.00    +0.011 A 
ENDBRANCH  11  17
BRANCH  13  24
ATOM     24  C   LIG    1        1.823   0.062   0.620  0.00  0.00    +0.155 C 
BRANCH  24  25
ATOM     25  C   LIG    1        2.540   0.747  -0.555  0.00  0.00    +0.310 C 
ATOM     26  O   LIG    1        3.527   1.457  -0.362  0.00  0.00    -0.251 OA
BRANCH  25  27
ATOM     27  O   LIG    1        1.958   0.479  -1.761  0.00  0.00    -0.459 OA
BRANCH  27  28
ATOM     28  C   LIG    1        2.373   1.025  -3.025  0.00  0.00    +0.105 C 
ATOM     29  C   LIG    1        1.386   0.415  -4.043  0.00  0.00    +0.055 C 
ATOM     30  C   LIG    1        2.234   2.567  -3.042  0.00  0.00    +0.055 C 
ATOM     31  C   LIG    1        3.816   0.593  -3.383  0.00  0.00    +0.055 C 
ENDBRANCH  27  28
ENDBRANCH  25  27
ENDBRANCH  24  25
ENDBRANCH  13  24
TORSDOF 5
