REMARK  Name = DB17273
REMARK                            x       y       z     vdW  Elec       q    Type
REMARK                         _______ _______ _______ _____ _____    ______ ____
ROOT
ATOM      1  C   LIG    1        3.280  -8.802  -2.425  0.00  0.00    +0.175 C 
ATOM      2  O   LIG    1        2.971  -8.246  -3.693  0.00  0.00    -0.364 OA
ATOM      3  C   LIG    1        3.134  -6.835  -3.786  0.00  0.00    +0.150 C 
ATOM      4  C   LIG    1        2.630  -6.502  -5.210  0.00  0.00    +0.043 C 
ATOM      5  C   LIG    1        2.356  -6.123  -2.645  0.00  0.00    +0.039 C 
ATOM      6  C   LIG    1        2.158  -4.659  -2.763  0.00  0.00    +0.196 C 
ATOM      7  C   LIG    1        1.173  -4.053  -1.773  0.00  0.00    +0.078 A 
ATOM      8  C   LIG    1        0.760  -2.700  -1.910  0.00  0.00    +0.135 A 
ATOM      9  C   LIG    1       -0.135  -2.114  -1.002  0.00  0.00    +0.040 A 
ATOM     10  C   LIG    1       -0.682  -0.656  -0.995  0.00  0.00    +0.146 C 
ATOM     11  C   LIG    1       -2.250  -0.772  -0.943  0.00  0.00    +0.155 C 
ATOM     12  O   LIG    1       -2.659  -1.622   0.155  0.00  0.00    -0.366 OA
ATOM     13  C   LIG    1       -1.594  -2.119   0.982  0.00  0.00    +0.155 C 
ATOM     14  C   LIG    1       -0.849  -0.874   1.541  0.00  0.00    +0.071 C 
ATOM     15  C   LIG    1       -2.914  -1.276  -2.237  0.00  0.00    +0.041 C 
ATOM     16  C   LIG    1       -0.234  -0.039   0.371  0.00  0.00    +0.163 C 
ATOM     17  C   LIG    1       -0.618  -2.878   0.066  0.00  0.00    +0.033 A 
ATOM     18  C   LIG    1       -0.222  -4.205   0.228  0.00  0.00    +0.135 A 
ATOM     19  C   LIG    1        0.674  -4.819  -0.683  0.00  0.00    +0.078 A 
ATOM     20  C   LIG    1        1.105  -6.261  -0.474  0.00  0.00    +0.198 C 
ATOM     21  O   LIG    1        0.792  -6.915   0.523  0.00  0.00    -0.287 OA
ATOM     22  O   LIG    1        2.752  -3.979  -3.601  0.00  0.00    -0.287 OA
ATOM     23  C   LIG    1        1.901  -6.838  -1.576  0.00  0.00    +0.052 C 
ATOM     24  C   LIG    1        2.252  -8.327  -1.400  0.00  0.00    +0.240 C 
ATOM     25  O   LIG    1        1.142  -9.192  -1.625  0.00  0.00    -0.454 OA
ATOM     26  C   LIG    1        1.538 -10.358  -2.180  0.00  0.00    +0.310 C 
ATOM     27  O   LIG    1        0.755 -11.279  -2.396  0.00  0.00    -0.251 OA
ATOM     28  C   LIG    1        3.031 -10.299  -2.489  0.00  0.00    +0.156 C 
ENDROOT
BRANCH   8  29
ATOM     29  O   LIG    1        1.216  -1.915  -2.943  0.00  0.00    -0.506 OA
ATOM     30  H   LIG    1        1.827  -2.377  -3.523  0.00  0.00    +0.292 HD
ENDBRANCH   8  29
BRANCH  10  31
ATOM     31  O   LIG    1       -0.286   0.193  -2.060  0.00  0.00    -0.379 OA
ATOM     32  H   LIG    1       -0.676   1.059  -1.920  0.00  0.00    +0.211 HD
ENDBRANCH  10  31
BRANCH  18  33
ATOM     33  O   LIG    1       -0.757  -4.877   1.304  0.00  0.00    -0.506 OA
ATOM     34  H   LIG    1       -1.358  -4.338   1.823  0.00  0.00    +0.292 HD
ENDBRANCH  18  33
BRANCH  16  35
ATOM     35  O   LIG    1        1.195  -0.036   0.450  0.00  0.00    -0.345 OA
BRANCH  35  36
ATOM     36  C   LIG    1        1.771   0.898   1.317  0.00  0.00    +0.251 C 
ATOM     37  O   LIG    1        1.613   2.220   0.851  0.00  0.00    -0.346 OA
ATOM     38  C   LIG    1        2.248   2.500  -0.407  0.00  0.00    +0.147 C 
ATOM     39  C   LIG    1        1.872   3.926  -0.846  0.00  0.00    +0.040 C 
ATOM     40  C   LIG    1        3.775   2.248  -0.342  0.00  0.00    +0.143 C 
ATOM     41  C   LIG    1        4.025   0.818   0.162  0.00  0.00    +0.039 C 
ATOM     42  C   LIG    1        3.259   0.552   1.470  0.00  0.00    +0.064 C 
BRANCH  40  43
ATOM     43  O   LIG    1        4.433   3.198   0.479  0.00  0.00    -0.389 OA
ATOM     44  H   LIG    1        4.401   4.053   0.043  0.00  0.00    +0.210 HD
ENDBRANCH  40  43
ENDBRANCH  35  36
ENDBRANCH  16  35
TORSDOF 6
