REMARK  Name = DB17277
REMARK                            x       y       z     vdW  Elec       q    Type
REMARK                         _______ _______ _______ _____ _____    ______ ____
ROOT
ATOM      1  CA  ARG A  7       -2.963  -1.352   0.557  0.00  0.00    +0.159 C 
ENDROOT
BRANCH   1   3
ATOM      2  C   PHE A  6       -5.032  -0.423  -0.581  0.00  0.00    +0.234 C 
ATOM      3  N   ARG A  7       -3.915  -1.172  -0.545  0.00  0.00    -0.302 N 
ATOM      4  H   ARG A  7       -3.582  -1.539  -1.426  0.00  0.00    +0.150 HD
ATOM      5  O   PHE A  6       -5.580   0.076   0.402  0.00  0.00    -0.274 OA
BRANCH   2   6
ATOM      6  CA  PHE A  6       -5.572  -0.129  -1.996  0.00  0.00    +0.159 C 
BRANCH   6   8
ATOM      7  C   UNK A  5       -4.838   2.282  -2.149  0.00  0.00    +0.234 C 
ATOM      8  N   PHE A  6       -4.867   1.011  -2.591  0.00  0.00    -0.302 N 
ATOM      9  H   PHE A  6       -4.303   0.777  -3.394  0.00  0.00    +0.150 HD
ATOM     10  O   UNK A  5       -5.483   2.703  -1.188  0.00  0.00    -0.274 OA
BRANCH   7  11
ATOM     11  C   UNK A  5       -3.936   3.246  -2.947  0.00  0.00    +0.163 C 
BRANCH  11  13
ATOM     12  C   SER A  4       -3.123   4.895  -1.214  0.00  0.00    +0.236 C 
ATOM     13  N   UNK A  5       -2.930   3.884  -2.083  0.00  0.00    -0.302 N 
ATOM     14  H   UNK A  5       -2.013   3.463  -2.125  0.00  0.00    +0.150 HD
ATOM     15  O   SER A  4       -4.205   5.457  -1.040  0.00  0.00    -0.274 OA
BRANCH  12  16
ATOM     16  CA  SER A  4       -1.889   5.317  -0.380  0.00  0.00    +0.184 C 
BRANCH  16  18
ATOM     17  C   TRP A  3       -2.533   7.628   0.424  0.00  0.00    +0.234 C 
ATOM     18  N   SER A  4       -2.174   6.348   0.628  0.00  0.00    -0.301 N 
ATOM     19  H   SER A  4       -2.104   6.025   1.581  0.00  0.00    +0.150 HD
ATOM     20  O   TRP A  3       -2.665   8.150  -0.682  0.00  0.00    -0.274 OA
BRANCH  17  21
ATOM     21  CA  TRP A  3       -2.756   8.463   1.700  0.00  0.00    +0.163 C 
BRANCH  21  23
ATOM     22  C   SER A  2       -4.511  10.144   0.977  0.00  0.00    +0.236 C 
ATOM     23  N   TRP A  3       -4.069   9.118   1.728  0.00  0.00    -0.302 N 
ATOM     24  H   TRP A  3       -4.721   8.710   2.382  0.00  0.00    +0.150 HD
ATOM     25  O   SER A  2       -3.833  10.752   0.149  0.00  0.00    -0.274 OA
BRANCH  22  26
ATOM     26  CA  SER A  2       -5.970  10.567   1.239  0.00  0.00    +0.184 C 
BRANCH  26  28
ATOM     27  C   UNK A  1       -6.722  11.530  -0.985  0.00  0.00    +0.231 C 
ATOM     28  N   SER A  2       -6.778  10.626   0.013  0.00  0.00    -0.301 N 
ATOM     29  H   SER A  2       -7.442   9.871  -0.080  0.00  0.00    +0.150 HD
ATOM     30  O   UNK A  1       -5.962  12.500  -1.007  0.00  0.00    -0.274 OA
BRANCH  27  31
ATOM     31  C   UNK A  1       -7.716  11.310  -2.146  0.00  0.00    +0.142 C 
BRANCH  31  32
ATOM     32  N   UNK A  1       -6.934  11.260  -3.395  0.00  0.00    -0.320 NA
ATOM     33  H   UNK A  1       -6.769  12.196  -3.737  0.00  0.00    +0.119 HD
ATOM     34  H   UNK A  1       -7.465  10.798  -4.119  0.00  0.00    +0.119 HD
ENDBRANCH  31  32
BRANCH  31  35
ATOM     35  C   UNK A  1       -8.820  12.395  -2.158  0.00  0.00    +0.063 C 
BRANCH  35  36
ATOM     36  C   UNK A  1       -9.939  12.065  -3.140  0.00  0.00    -0.045 A 
ATOM     37  C   UNK A  1      -10.915  11.129  -2.792  0.00  0.00    +0.004 A 
ATOM     38  C   UNK A  1      -11.936  10.823  -3.687  0.00  0.00    +0.012 A 
ATOM     39  C   UNK A  1      -12.008  11.465  -4.931  0.00  0.00    +0.022 A 
ATOM     40  C   UNK A  1      -11.008  12.383  -5.282  0.00  0.00    +0.012 A 
ATOM     41  C   UNK A  1       -9.984  12.687  -4.388  0.00  0.00    +0.004 A 
BRANCH  39  42
ATOM     42  C   UNK A  1      -13.094  11.088  -5.897  0.00  0.00    +0.193 C 
ATOM     43  O   UNK A  1      -13.559   9.945  -5.869  0.00  0.00    -0.287 OA
BRANCH  42  44
ATOM     44  C   UNK A  1      -13.631  12.082  -6.889  0.00  0.00    +0.022 A 
ATOM     45  C   UNK A  1      -13.639  13.458  -6.611  0.00  0.00    +0.012 A 
ATOM     46  C   UNK A  1      -14.183  14.359  -7.522  0.00  0.00    +0.001 A 
ATOM     47  C   UNK A  1      -14.737  13.890  -8.710  0.00  0.00    +0.000 A 
ATOM     48  C   UNK A  1      -14.761  12.527  -8.989  0.00  0.00    +0.001 A 
ATOM     49  C   UNK A  1      -14.218  11.625  -8.078  0.00  0.00    +0.012 A 
ENDBRANCH  42  44
ENDBRANCH  39  42
ENDBRANCH  35  36
ENDBRANCH  31  35
ENDBRANCH  27  31
ENDBRANCH  26  28
BRANCH  26  50
ATOM     50  CB  SER A  2       -6.077  11.878   2.057  0.00  0.00    +0.187 C 
BRANCH  50  51
ATOM     51  OG  SER A  2       -5.436  11.760   3.312  0.00  0.00    -0.393 OA
ATOM     52  H   SER A  2       -4.486  11.782   3.170  0.00  0.00    +0.209 HD
ENDBRANCH  50  51
ENDBRANCH  26  50
ENDBRANCH  22  26
ENDBRANCH  21  23
BRANCH  21  53
ATOM     53  CB  TRP A  3       -1.605   9.465   1.959  0.00  0.00    +0.069 C 
BRANCH  53  54
ATOM     54  CG  TRP A  3       -0.236   8.870   2.129  0.00  0.00    -0.020 A 
ATOM     55  CD2 TRP A  3        0.355   8.280   3.328  0.00  0.00    +0.003 A 
ATOM     56  CE3 TRP A  3       -0.079   8.096   4.663  0.00  0.00    +0.010 A 
ATOM     57  CZ3 TRP A  3        0.751   7.480   5.623  0.00  0.00    +0.001 A 
ATOM     58  CH2 TRP A  3        2.041   7.037   5.271  0.00  0.00    +0.002 A 
ATOM     59  CZ2 TRP A  3        2.504   7.204   3.954  0.00  0.00    +0.026 A 
ATOM     60  CE2 TRP A  3        1.665   7.811   3.003  0.00  0.00    +0.047 A 
ATOM     61  NE1 TRP A  3        1.806   8.096   1.661  0.00  0.00    -0.360 N 
ATOM     62  HE1 TRP A  3        2.621   7.897   1.099  0.00  0.00    +0.165 HD
ATOM     63  CD1 TRP A  3        0.682   8.711   1.149  0.00  0.00    +0.087 A 
ENDBRANCH  53  54
ENDBRANCH  21  53
ENDBRANCH  17  21
ENDBRANCH  16  18
BRANCH  16  64
ATOM     64  CB  SER A  4       -0.630   5.696  -1.210  0.00  0.00    +0.187 C 
BRANCH  64  65
ATOM     65  OG  SER A  4       -0.894   6.511  -2.332  0.00  0.00    -0.393 OA
ATOM     66  H   SER A  4       -0.056   6.794  -2.707  0.00  0.00    +0.209 HD
ENDBRANCH  64  65
ENDBRANCH  16  64
ENDBRANCH  12  16
ENDBRANCH  11  13
BRANCH  11  67
ATOM     67  C   UNK A  5       -4.756   4.260  -3.794  0.00  0.00    +0.073 C 
BRANCH  67  68
ATOM     68  C   UNK A  5       -5.490   3.623  -4.975  0.00  0.00    +0.031 A 
ATOM     69  C   UNK A  5       -4.795   3.311  -6.152  0.00  0.00    +0.167 A 
ATOM     70  F   UNK A  5       -3.462   3.529  -6.238  0.00  0.00    -0.202 F 
ATOM     71  C   UNK A  5       -5.473   2.777  -7.249  0.00  0.00    +0.197 A 
ATOM     72  F   UNK A  5       -4.796   2.480  -8.383  0.00  0.00    -0.199 F 
ATOM     73  C   UNK A  5       -6.848   2.546  -7.177  0.00  0.00    +0.199 A 
ATOM     74  F   UNK A  5       -7.504   2.029  -8.242  0.00  0.00    -0.199 F 
ATOM     75  C   UNK A  5       -7.543   2.834  -6.002  0.00  0.00    +0.197 A 
ATOM     76  F   UNK A  5       -8.873   2.595  -5.928  0.00  0.00    -0.199 F 
ATOM     77  C   UNK A  5       -6.868   3.370  -4.903  0.00  0.00    +0.167 A 
ATOM     78  F   UNK A  5       -7.559   3.646  -3.772  0.00  0.00    -0.202 F 
ENDBRANCH  67  68
ENDBRANCH  11  67
ENDBRANCH   7  11
ENDBRANCH   6   8
BRANCH   6  79
ATOM     79  CB  PHE A  6       -7.115   0.013  -2.066  0.00  0.00    +0.035 C 
BRANCH  79  80
ATOM     80  CG  PHE A  6       -7.947  -1.188  -1.542  0.00  0.00    -0.009 C 
ATOM     81  CD2 PHE A  6       -9.461  -0.909  -1.688  0.00  0.00    +0.003 C 
ATOM     82  CE2 PHE A  6      -10.311  -2.049  -1.092  0.00  0.00    +0.000 C 
ATOM     83  CZ  PHE A  6       -9.952  -3.410  -1.725  0.00  0.00    +0.000 C 
ATOM     84  CE1 PHE A  6       -8.436  -3.695  -1.681  0.00  0.00    +0.000 C 
ATOM     85  CD1 PHE A  6       -7.615  -2.523  -2.257  0.00  0.00    +0.003 C 
ENDBRANCH  79  80
ENDBRANCH   6  79
ENDBRANCH   2   6
ENDBRANCH   1   3
BRANCH   1  86
ATOM     86  C   ARG A  7       -2.106  -0.086   0.745  0.00  0.00    +0.234 C 
ATOM     87  N   ARG A  8       -0.773  -0.282   0.754  0.00  0.00    -0.302 N 
ATOM     88  H   ARG A  8       -0.437  -1.234   0.691  0.00  0.00    +0.150 HD
ATOM     89  O   ARG A  7       -2.652   1.013   0.847  0.00  0.00    -0.274 OA
BRANCH  87  90
ATOM     90  CA  ARG A  8        0.274   0.736   0.610  0.00  0.00    +0.159 C 
BRANCH  90  91
ATOM     91  C   ARG A  8        0.153   1.376  -0.783  0.00  0.00    +0.234 C 
ATOM     92  N   ARG A  9        0.723   0.694  -1.793  0.00  0.00    -0.302 N 
ATOM     93  H   ARG A  9        1.249  -0.134  -1.551  0.00  0.00    +0.150 HD
ATOM     94  O   ARG A  8       -0.516   2.397  -0.915  0.00  0.00    -0.274 OA
BRANCH  92  95
ATOM     95  CA  ARG A  9        0.461   0.833  -3.233  0.00  0.00    +0.159 C 
BRANCH  95  96
ATOM     96  C   ARG A  9       -0.878   0.164  -3.598  0.00  0.00    +0.234 C 
ATOM     97  N   GLN A 10       -0.837  -0.720  -4.613  0.00  0.00    -0.302 N 
ATOM     98  H   GLN A 10        0.054  -0.877  -5.061  0.00  0.00    +0.150 HD
ATOM     99  O   ARG A  9       -1.892   0.464  -2.970  0.00  0.00    -0.274 OA
BRANCH  97 100
ATOM    100  CA  GLN A 10       -1.922  -1.581  -5.103  0.00  0.00    +0.159 C 
BRANCH 100 101
ATOM    101  C   GLN A 10       -2.315  -2.646  -4.063  0.00  0.00    +0.234 C 
ATOM    102  N   ARG A 11       -1.991  -3.918  -4.356  0.00  0.00    -0.302 N 
ATOM    103  H   ARG A 11       -1.484  -4.105  -5.209  0.00  0.00    +0.150 HD
ATOM    104  O   GLN A 10       -2.933  -2.305  -3.057  0.00  0.00    -0.274 OA
BRANCH 102 105
ATOM    105  CA  ARG A 11       -2.332  -5.102  -3.556  0.00  0.00    +0.159 C 
BRANCH 105 106
ATOM    106  C   ARG A 11       -1.709  -5.035  -2.146  0.00  0.00    +0.234 C 
ATOM    107  N   ARG A 12       -0.364  -5.093  -2.114  0.00  0.00    -0.301 N 
ATOM    108  H   ARG A 12        0.126  -5.187  -2.992  0.00  0.00    +0.150 HD
ATOM    109  O   ARG A 11       -2.426  -4.898  -1.153  0.00  0.00    -0.274 OA
BRANCH 107 110
ATOM    110  CA  ARG A 12        0.516  -4.949  -0.935  0.00  0.00    +0.182 C 
BRANCH 110 111
ATOM    111  C   ARG A 12        0.451  -3.489  -0.318  0.00  0.00    +0.325 C 
ATOM    112  OXT ARG A 12        0.333  -3.397   0.926  0.00  0.00    -0.249 OA
BRANCH 111 113
ATOM    113  O   ARG A 12        0.585  -2.561  -1.152  0.00  0.00    -0.479 OA
ATOM    114  H   ARG A 12        0.558  -1.668  -0.867  0.00  0.00    +0.295 HD
ENDBRANCH 111 113
ENDBRANCH 110 111
BRANCH 110 115
ATOM    115  CB  ARG A 12        0.293  -6.108   0.093  0.00  0.00    +0.035 C 
BRANCH 115 116
ATOM    116  CG  ARG A 12        0.664  -7.501  -0.460  0.00  0.00    +0.017 C 
BRANCH 116 117
ATOM    117  CD  ARG A 12        0.350  -8.665   0.499  0.00  0.00    +0.084 C 
BRANCH 117 118
ATOM    118  NE  ARG A 12       -1.097  -8.932   0.612  0.00  0.00    -0.283 NA
ATOM    119  HE  ARG A 12       -1.689  -8.311   0.080  0.00  0.00    +0.125 HD
BRANCH 118 120
ATOM    120  CZ  ARG A 12       -1.690  -9.905   1.330  0.00  0.00    +0.167 C 
BRANCH 120 121
ATOM    121  NH2 ARG A 12       -3.026 -10.007   1.299  0.00  0.00    -0.297 NA
ATOM    122 HH21 ARG A 12       -3.570  -9.368   0.738  0.00  0.00    +0.121 HD
ATOM    123 HH22 ARG A 12       -3.491 -10.737   1.821  0.00  0.00    +0.121 HD
ENDBRANCH 120 121
BRANCH 120 124
ATOM    124  NH1 ARG A 12       -0.991 -10.778   2.074  0.00  0.00    -0.297 NA
ATOM    125 HH11 ARG A 12        0.017 -10.716   2.109  0.00  0.00    +0.121 HD
ATOM    126 HH12 ARG A 12       -1.464 -11.500   2.600  0.00  0.00    +0.121 HD
ENDBRANCH 120 124
ENDBRANCH 118 120
ENDBRANCH 117 118
ENDBRANCH 116 117
ENDBRANCH 115 116
ENDBRANCH 110 115
ENDBRANCH 107 110
ENDBRANCH 105 106
BRANCH 105 127
ATOM    127  CB  ARG A 11       -3.867  -5.328  -3.581  0.00  0.00    +0.033 C 
BRANCH 127 128
ATOM    128  CG  ARG A 11       -4.345  -6.652  -2.957  0.00  0.00    +0.017 C 
BRANCH 128 129
ATOM    129  CD  ARG A 11       -5.858  -6.851  -3.144  0.00  0.00    +0.084 C 
BRANCH 129 130
ATOM    130  NE  ARG A 11       -6.380  -7.981  -2.355  0.00  0.00    -0.283 NA
ATOM    131  HE  ARG A 11       -6.389  -8.873  -2.829  0.00  0.00    +0.125 HD
BRANCH 130 132
ATOM    132  CZ  ARG A 11       -6.822  -7.941  -1.083  0.00  0.00    +0.167 C 
BRANCH 132 133
ATOM    133  NH2 ARG A 11       -7.274  -9.071  -0.524  0.00  0.00    -0.297 NA
ATOM    134 HH21 ARG A 11       -7.293  -9.929  -1.058  0.00  0.00    +0.121 HD
ATOM    135 HH22 ARG A 11       -7.628  -9.066   0.422  0.00  0.00    +0.121 HD
ENDBRANCH 132 133
BRANCH 132 136
ATOM    136  NH1 ARG A 11       -6.827  -6.812  -0.355  0.00  0.00    -0.297 NA
ATOM    137 HH11 ARG A 11       -6.492  -5.949  -0.761  0.00  0.00    +0.121 HD
ATOM    138 HH12 ARG A 11       -7.192  -6.812   0.587  0.00  0.00    +0.121 HD
ENDBRANCH 132 136
ENDBRANCH 130 132
ENDBRANCH 129 130
ENDBRANCH 128 129
ENDBRANCH 127 128
ENDBRANCH 105 127
ENDBRANCH 102 105
ENDBRANCH 100 101
BRANCH 100 139
ATOM    139  CB  GLN A 10       -3.145  -0.757  -5.583  0.00  0.00    +0.041 C 
BRANCH 139 140
ATOM    140  CG  GLN A 10       -4.285  -1.611  -6.185  0.00  0.00    +0.098 C 
BRANCH 140 141
ATOM    141  CD  GLN A 10       -5.557  -0.800  -6.430  0.00  0.00    +0.211 C 
ATOM    142  OE1 GLN A 10       -6.031  -0.096  -5.541  0.00  0.00    -0.276 OA
ATOM    143  NE2 GLN A 10       -6.136  -0.924  -7.627  0.00  0.00    -0.329 N 
ATOM    144 HE21 GLN A 10       -6.984  -0.416  -7.835  0.00  0.00    +0.145 HD
ATOM    145 HE22 GLN A 10       -5.732  -1.523  -8.332  0.00  0.00    +0.145 HD
ENDBRANCH 140 141
ENDBRANCH 139 140
ENDBRANCH 100 139
ENDBRANCH  97 100
ENDBRANCH  95  96
BRANCH  95 146
ATOM    146  CB  ARG A  9        0.561   2.299  -3.734  0.00  0.00    +0.033 C 
BRANCH 146 147
ATOM    147  CG  ARG A  9        0.461   2.455  -5.266  0.00  0.00    +0.017 C 
BRANCH 147 148
ATOM    148  CD  ARG A  9        0.604   3.907  -5.762  0.00  0.00    +0.084 C 
BRANCH 148 149
ATOM    149  NE  ARG A  9       -0.564   4.746  -5.428  0.00  0.00    -0.283 NA
ATOM    150  HE  ARG A  9       -1.240   4.322  -4.808  0.00  0.00    +0.125 HD
BRANCH 149 151
ATOM    151  CZ  ARG A  9       -0.813   6.000  -5.856  0.00  0.00    +0.167 C 
BRANCH 151 152
ATOM    152  NH2 ARG A  9       -1.936   6.609  -5.455  0.00  0.00    -0.297 NA
ATOM    153 HH21 ARG A  9       -2.567   6.144  -4.819  0.00  0.00    +0.121 HD
ATOM    154 HH22 ARG A  9       -2.145   7.549  -5.761  0.00  0.00    +0.121 HD
ENDBRANCH 151 152
BRANCH 151 155
ATOM    155  NH1 ARG A  9        0.026   6.661  -6.670  0.00  0.00    -0.297 NA
ATOM    156 HH11 ARG A  9        0.879   6.221  -6.985  0.00  0.00    +0.121 HD
ATOM    157 HH12 ARG A  9       -0.188   7.603  -6.968  0.00  0.00    +0.121 HD
ENDBRANCH 151 155
ENDBRANCH 149 151
ENDBRANCH 148 149
ENDBRANCH 147 148
ENDBRANCH 146 147
ENDBRANCH  95 146
ENDBRANCH  92  95
ENDBRANCH  90  91
BRANCH  90 158
ATOM    158  CB  ARG A  8        0.241   1.754   1.779  0.00  0.00    +0.033 C 
BRANCH 158 159
ATOM    159  CG  ARG A  8        1.359   2.817   1.738  0.00  0.00    +0.017 C 
BRANCH 159 160
ATOM    160  CD  ARG A  8        1.370   3.790   2.933  0.00  0.00    +0.084 C 
BRANCH 160 161
ATOM    161  NE  ARG A  8        0.112   4.547   3.086  0.00  0.00    -0.283 NA
ATOM    162  HE  ARG A  8        0.031   5.363   2.495  0.00  0.00    +0.125 HD
BRANCH 161 163
ATOM    163  CZ  ARG A  8       -0.931   4.258   3.890  0.00  0.00    +0.167 C 
BRANCH 163 164
ATOM    164  NH2 ARG A  8       -1.996   5.069   3.879  0.00  0.00    -0.297 NA
ATOM    165 HH21 ARG A  8       -2.000   5.894   3.299  0.00  0.00    +0.121 HD
ATOM    166 HH22 ARG A  8       -2.796   4.866   4.463  0.00  0.00    +0.121 HD
ENDBRANCH 163 164
BRANCH 163 167
ATOM    167  NH1 ARG A  8       -0.943   3.190   4.704  0.00  0.00    -0.297 NA
ATOM    168 HH11 ARG A  8       -0.153   2.562   4.723  0.00  0.00    +0.121 HD
ATOM    169 HH12 ARG A  8       -1.748   2.998   5.283  0.00  0.00    +0.121 HD
ENDBRANCH 163 167
ENDBRANCH 161 163
ENDBRANCH 160 161
ENDBRANCH 159 160
ENDBRANCH 158 159
ENDBRANCH  90 158
ENDBRANCH  87  90
ENDBRANCH   1  86
BRANCH   1 170
ATOM    170  CB  ARG A  7       -3.626  -1.863   1.861  0.00  0.00    +0.033 C 
BRANCH 170 171
ATOM    171  CG  ARG A  7       -2.624  -2.129   3.005  0.00  0.00    +0.017 C 
BRANCH 171 172
ATOM    172  CD  ARG A  7       -3.236  -2.808   4.243  0.00  0.00    +0.084 C 
BRANCH 172 173
ATOM    173  NE  ARG A  7       -3.547  -4.231   4.015  0.00  0.00    -0.283 NA
ATOM    174  HE  ARG A  7       -3.371  -4.562   3.077  0.00  0.00    +0.125 HD
BRANCH 173 175
ATOM    175  CZ  ARG A  7       -4.021  -5.112   4.918  0.00  0.00    +0.167 C 
BRANCH 175 176
ATOM    176  NH2 ARG A  7       -4.232  -6.378   4.536  0.00  0.00    -0.297 NA
ATOM    177 HH21 ARG A  7       -4.027  -6.660   3.588  0.00  0.00    +0.121 HD
ATOM    178 HH22 ARG A  7       -4.582  -7.056   5.197  0.00  0.00    +0.121 HD
ENDBRANCH 175 176
BRANCH 175 179
ATOM    179  NH1 ARG A  7       -4.287  -4.766   6.188  0.00  0.00    -0.297 NA
ATOM    180 HH11 ARG A  7       -4.130  -3.816   6.495  0.00  0.00    +0.121 HD
ATOM    181 HH12 ARG A  7       -4.640  -5.449   6.842  0.00  0.00    +0.121 HD
ENDBRANCH 175 179
ENDBRANCH 173 175
ENDBRANCH 172 173
ENDBRANCH 171 172
ENDBRANCH 170 171
ENDBRANCH   1 170
TORSDOF 77
