REMARK  Name = DB17304
REMARK                            x       y       z     vdW  Elec       q    Type
REMARK                         _______ _______ _______ _____ _____    ______ ____
ROOT
ATOM      1  O   LIG    1        1.832  -1.156   0.406  0.00  0.00    -0.351 OA
ENDROOT
BRANCH   1   2
ATOM      2  C   LIG    1        1.374   0.096  -0.110  0.00  0.00    +0.176 C 
BRANCH   2   3
ATOM      3  C   LIG    1       -0.147   0.197   0.195  0.00  0.00    +0.171 C 
BRANCH   3   4
ATOM      4  O   LIG    1       -0.692   1.397  -0.327  0.00  0.00    -0.387 OA
ATOM      5  H   LIG    1       -0.530   1.420  -1.273  0.00  0.00    +0.210 HD
ENDBRANCH   3   4
BRANCH   3   6
ATOM      6  C   LIG    1       -0.505   0.089   1.698  0.00  0.00    +0.189 C 
BRANCH   6   7
ATOM      7  O   LIG    1        0.150   1.067   2.484  0.00  0.00    -0.392 OA
ATOM      8  H   LIG    1       -0.137   0.970   3.395  0.00  0.00    +0.210 HD
ENDBRANCH   6   7
ENDBRANCH   3   6
ENDBRANCH   2   3
BRANCH   2   9
ATOM      9  C   LIG    1        1.736   0.231  -1.613  0.00  0.00    +0.190 C 
BRANCH   9  10
ATOM     10  O   LIG    1        1.116  -0.772  -2.394  0.00  0.00    -0.392 OA
ATOM     11  H   LIG    1        1.493  -1.622  -2.154  0.00  0.00    +0.210 HD
ENDBRANCH   9  10
ENDBRANCH   2   9
ENDBRANCH   1   2
BRANCH   1  12
ATOM     12  C   LIG    1        3.198  -1.251   0.677  0.00  0.00    +0.288 C 
BRANCH  12  13
ATOM     13  N   LIG    1        3.521  -2.497   1.341  0.00  0.00    -0.288 N 
ATOM     14  C   LIG    1        4.759  -3.056   1.647  0.00  0.00    +0.288 A 
ATOM     15  N   LIG    1        4.668  -4.221   2.258  0.00  0.00    -0.215 NA
ATOM     16  C   LIG    1        3.378  -4.449   2.383  0.00  0.00    +0.132 A 
ATOM     17  C   LIG    1        2.632  -3.421   1.843  0.00  0.00    +0.111 A 
BRANCH  14  18
ATOM     18  N   LIG    1        6.016  -2.420   1.333  0.00  0.00    +0.043 N 
ATOM     19  O   LIG    1        6.024  -1.269   0.907  0.00  0.00    -0.127 OA
BRANCH  18  20
ATOM     20  O   LIG    1        7.039  -3.071   1.522  0.00  0.00    -0.394 OA
ATOM     21  H   LIG    1        6.983  -3.948   1.848  0.00  0.00    +0.329 HD
ENDBRANCH  18  20
ENDBRANCH  14  18
ENDBRANCH  12  13
ENDBRANCH   1  12
TORSDOF 11
