REMARK  Name = DB17261
REMARK                            x       y       z     vdW  Elec       q    Type
REMARK                         _______ _______ _______ _____ _____    ______ ____
ROOT
ATOM      1  C   LIG    1        1.430  -0.055   0.028  0.00  0.00    -0.032 A 
ATOM      2  C   LIG    1        2.086  -0.553  -1.101  0.00  0.00    +0.008 A 
ATOM      3  C   LIG    1        3.480  -0.568  -1.157  0.00  0.00    +0.047 A 
ATOM      4  C   LIG    1        4.245  -0.083  -0.082  0.00  0.00    +0.134 A 
ATOM      5  C   LIG    1        3.580   0.413   1.046  0.00  0.00    +0.060 A 
ATOM      6 BR   LIG    1        4.567   1.080   2.535  0.00  0.00    -0.047 Br
ATOM      7  C   LIG    1        2.186   0.425   1.101  0.00  0.00    +0.023 A 
ENDROOT
BRANCH   1   8
ATOM      8  C   LIG    1       -0.092  -0.046   0.092  0.00  0.00    +0.119 C 
BRANCH   8   9
ATOM      9  N   LIG    1       -0.677   1.293  -0.090  0.00  0.00    -0.279 NA
ATOM     10  H   LIG    1       -0.025   2.043  -0.273  0.00  0.00    +0.125 HD
BRANCH   9  11
ATOM     11  C   LIG    1       -1.969   1.633  -0.034  0.00  0.00    +0.167 C 
BRANCH  11  12
ATOM     12  N   LIG    1       -2.949   0.766   0.210  0.00  0.00    -0.297 NA
ATOM     13  H   LIG    1       -2.732  -0.208   0.360  0.00  0.00    +0.121 HD
ATOM     14  H   LIG    1       -3.906   1.084   0.243  0.00  0.00    +0.121 HD
ENDBRANCH  11  12
BRANCH  11  15
ATOM     15  N   LIG    1       -2.293   2.901  -0.230  0.00  0.00    -0.297 NA
ATOM     16  H   LIG    1       -3.177   3.253   0.109  0.00  0.00    +0.121 HD
ATOM     17  H   LIG    1       -1.657   3.515  -0.718  0.00  0.00    +0.121 HD
ENDBRANCH  11  15
ENDBRANCH   9  11
ENDBRANCH   8   9
ENDBRANCH   1   8
BRANCH   4  18
ATOM     18  O   LIG    1        5.628  -0.065  -0.061  0.00  0.00    -0.491 OA
BRANCH  18  19
ATOM     19  C   LIG    1        6.358  -0.597  -1.164  0.00  0.00    +0.231 C 
BRANCH  19  20
ATOM     20  C   LIG    1        7.863  -0.460  -0.889  0.00  0.00    +0.074 C 
BRANCH  20  21
ATOM     21  C   LIG    1        8.333  -1.221   0.359  0.00  0.00    +0.216 C 
ATOM     22  F   LIG    1        9.644  -1.114   0.571  0.00  0.00    -0.249 F 
ENDBRANCH  20  21
ENDBRANCH  19  20
ENDBRANCH  18  19
ENDBRANCH   4  18
TORSDOF 9
