REMARK  Name = DB17525
REMARK                            x       y       z     vdW  Elec       q    Type
REMARK                         _______ _______ _______ _____ _____    ______ ____
ROOT
ATOM      1  C   LIG    1        1.300  -1.209   1.182  0.00  0.00    +0.122 A 
ATOM      2  C   LIG    1        1.112  -1.834  -0.058  0.00  0.00    +0.047 A 
ATOM      3  C   LIG    1        1.820  -2.990  -0.374  0.00  0.00    +0.027 A 
ATOM      4  C   LIG    1        2.729  -3.529   0.549  0.00  0.00    +0.034 A 
ATOM      5  C   LIG    1        2.936  -2.887   1.771  0.00  0.00    +0.027 A 
ATOM      6  C   LIG    1        2.224  -1.732   2.084  0.00  0.00    +0.047 A 
ENDROOT
BRANCH   4   7
ATOM      7  N   LIG    1        3.502  -4.680   0.310  0.00  0.00    -0.285 N 
ATOM      8  H   LIG    1        4.308  -4.781   0.909  0.00  0.00    +0.155 HD
ATOM      9  C   LIG    1        3.258  -5.695  -0.547  0.00  0.00    +0.232 C 
ATOM     10  O   LIG    1        2.231  -5.817  -1.216  0.00  0.00    -0.274 OA
BRANCH   9  11
ATOM     11  C   LIG    1        4.299  -6.836  -0.562  0.00  0.00    +0.123 C 
ATOM     12  C   LIG    1        5.764  -6.407  -0.630  0.00  0.00    +0.027 C 
ATOM     13  C   LIG    1        5.077  -6.926  -1.871  0.00  0.00    +0.027 C 
BRANCH  11  14
ATOM     14  C   LIG    1        4.019  -8.208   0.116  0.00  0.00    +0.232 C 
ATOM     15  N   LIG    1        2.817  -8.353   0.721  0.00  0.00    -0.285 N 
ATOM     16  H   LIG    1        2.154  -7.604   0.581  0.00  0.00    +0.155 HD
ATOM     17  O   LIG    1        4.871  -9.099   0.072  0.00  0.00    -0.274 OA
BRANCH  15  18
ATOM     18  C   LIG    1        2.316  -9.452   1.441  0.00  0.00    +0.034 A 
ATOM     19  C   LIG    1        3.123 -10.411   2.073  0.00  0.00    +0.026 A 
ATOM     20  C   LIG    1        2.535 -11.455   2.783  0.00  0.00    +0.040 A 
ATOM     21  C   LIG    1        1.148 -11.540   2.869  0.00  0.00    +0.124 A 
ATOM     22  F   LIG    1        0.579 -12.554   3.559  0.00  0.00    -0.205 F 
ATOM     23  C   LIG    1        0.341 -10.585   2.256  0.00  0.00    +0.040 A 
ATOM     24  C   LIG    1        0.925  -9.538   1.548  0.00  0.00    +0.026 A 
ENDBRANCH  15  18
ENDBRANCH  11  14
ENDBRANCH   9  11
ENDBRANCH   4   7
BRANCH   1  25
ATOM     25  O   LIG    1        0.647  -0.046   1.533  0.00  0.00    -0.481 OA
BRANCH  25  34
ATOM     26  C   LIG    1       -0.513   3.778  -0.013  0.00  0.00    +0.099 C 
ATOM     27  C   LIG    1       -1.863   4.000  -0.362  0.00  0.00    +0.119 C 
ATOM     28  C   LIG    1       -2.797   2.962  -0.204  0.00  0.00    +0.055 C 
ATOM     29  C   LIG    1       -2.387   1.712   0.298  0.00  0.00    +0.055 C 
ATOM     30  N   LIG    1       -3.288   0.685   0.463  0.00  0.00    -0.303 NA
ATOM     31  H   LIG    1       -4.252   0.851   0.213  0.00  0.00    +0.123 HD
ATOM     32  C   LIG    1       -2.966  -0.528   0.943  0.00  0.00    +0.079 C 
ATOM     33  C   LIG    1       -1.650  -0.797   1.304  0.00  0.00    +0.064 C 
ATOM     34  C   LIG    1       -0.660   0.185   1.157  0.00  0.00    +0.164 C 
ATOM     35  C   LIG    1       -1.032   1.468   0.656  0.00  0.00    +0.051 C 
ATOM     36  C   LIG    1       -0.111   2.530   0.489  0.00  0.00    +0.026 C 
BRANCH  26  40
ATOM     37  C   LIG    1        2.845   5.390  -0.865  0.00  0.00    +0.128 C 
ATOM     38  N   LIG    1        1.705   4.504  -0.654  0.00  0.00    -0.318 N 
ATOM     39  H   LIG    1        1.832   3.541  -0.927  0.00  0.00    +0.148 HD
ATOM     40  C   LIG    1        0.515   4.879  -0.147  0.00  0.00    +0.223 C 
ATOM     41  O   LIG    1        0.250   6.033   0.193  0.00  0.00    -0.275 OA
ENDBRANCH  26  40
BRANCH  27  42
ATOM     42  O   LIG    1       -2.216   5.241  -0.868  0.00  0.00    -0.372 OA
ATOM     43  C   LIG    1       -3.569   5.512  -1.220  0.00  0.00    +0.194 C 
ENDBRANCH  27  42
ENDBRANCH  25  34
ENDBRANCH   1  25
TORSDOF 8
