REMARK  Name = DB17692
REMARK                            x       y       z     vdW  Elec       q    Type
REMARK                         _______ _______ _______ _____ _____    ______ ____
ROOT
ATOM      1  C   LIG    1       -1.716   3.248   0.405  0.00  0.00    +0.163 A 
ATOM      2  N   LIG    1       -1.444   1.991   0.744  0.00  0.00    -0.209 NA
ATOM      3  C   LIG    1       -0.649   1.542  -0.199  0.00  0.00    +0.194 A 
ATOM      4  O   LIG    1       -0.362   2.445  -1.167  0.00  0.00    -0.447 OA
ATOM      5  C   LIG    1       -1.050   3.543  -0.782  0.00  0.00    +0.230 A 
ENDROOT
BRANCH   1   8
ATOM      6  N   LIG    1       -3.103   3.679   2.261  0.00  0.00    -0.304 N 
ATOM      7  H   LIG    1       -2.855   2.742   2.543  0.00  0.00    +0.149 HD
ATOM      8  C   LIG    1       -2.556   4.172   1.132  0.00  0.00    +0.266 C 
ATOM      9  O   LIG    1       -2.745   5.319   0.723  0.00  0.00    -0.268 OA
BRANCH   6  10
ATOM     10  C   LIG    1       -3.968   4.422   3.180  0.00  0.00    +0.163 C 
BRANCH  10  13
ATOM     11  F   LIG    1       -4.321   7.253   2.611  0.00  0.00    -0.204 F 
ATOM     12  C   LIG    1       -3.479   6.895   3.608  0.00  0.00    +0.146 A 
ATOM     13  C   LIG    1       -3.266   5.549   3.931  0.00  0.00    +0.093 A 
ATOM     14  N   LIG    1       -2.425   5.161   4.929  0.00  0.00    -0.255 NA
ATOM     15  C   LIG    1       -1.774   6.128   5.626  0.00  0.00    +0.111 A 
ATOM     16  C   LIG    1       -1.933   7.489   5.363  0.00  0.00    +0.022 A 
ATOM     17  C   LIG    1       -2.799   7.873   4.337  0.00  0.00    +0.042 A 
ENDBRANCH  10  13
ENDBRANCH   6  10
ENDBRANCH   1   8
BRANCH   3  18
ATOM     18  C   LIG    1       -0.024   0.167  -0.296  0.00  0.00    +0.077 C 
BRANCH  18  19
ATOM     19  C   LIG    1        1.508   0.225  -0.169  0.00  0.00    -0.073 C 
BRANCH  19  20
ATOM     20  N   LIG    1        2.096  -1.190  -0.287  0.00  0.00    +0.380 N 
ATOM     21  H   LIG    1        1.832  -1.578  -1.182  0.00  0.00    -0.086 HD
ATOM     22  H   LIG    1        1.698  -1.771   0.437  0.00  0.00    -0.086 HD
BRANCH  20  23
ATOM     23  C   LIG    1        3.628  -1.228  -0.165  0.00  0.00    -0.075 C 
BRANCH  23  24
ATOM     24  C   LIG    1        4.135  -2.675  -0.334  0.00  0.00    +0.055 C 
BRANCH  24  25
ATOM     25  C   LIG    1        5.644  -2.820  -0.226  0.00  0.00    +0.106 A 
ATOM     26  N   LIG    1        6.269  -4.026  -0.447  0.00  0.00    -0.342 N 
ATOM     27  H   LIG    1        5.778  -4.872  -0.695  0.00  0.00    +0.167 HD
ATOM     28  C   LIG    1        7.618  -3.831  -0.268  0.00  0.00    +0.066 A 
ATOM     29  C   LIG    1        8.736  -4.666  -0.354  0.00  0.00    +0.028 A 
ATOM     30  C   LIG    1        9.976  -4.077  -0.091  0.00  0.00    +0.002 A 
ATOM     31  C   LIG    1       10.098  -2.726   0.241  0.00  0.00    +0.002 A 
ATOM     32  C   LIG    1        8.979  -1.896   0.326  0.00  0.00    +0.030 A 
ATOM     33  C   LIG    1        7.719  -2.456   0.067  0.00  0.00    +0.089 A 
ATOM     34  N   LIG    1        6.485  -1.861   0.086  0.00  0.00    -0.233 NA
ENDBRANCH  24  25
ENDBRANCH  23  24
ENDBRANCH  20  23
ENDBRANCH  19  20
ENDBRANCH  18  19
ENDBRANCH   3  18
TORSDOF 9
