REMARK  Name = DB17051
REMARK                            x       y       z     vdW  Elec       q    Type
REMARK                         _______ _______ _______ _____ _____    ______ ____
ROOT
ATOM      1  O   LIG    1        3.995  -0.268   1.994  0.00  0.00    -0.267 OA
ATOM      2  C   LIG    1        2.825  -0.629   2.098  0.00  0.00    +0.260 A 
ATOM      3  C   LIG    1        1.673  -0.366   1.190  0.00  0.00    +0.062 A 
ATOM      4  C   LIG    1        1.577   0.350  -0.025  0.00  0.00    +0.023 A 
ATOM      5  C   LIG    1        2.459   1.067  -0.868  0.00  0.00    +0.008 A 
ATOM      6  C   LIG    1        3.837   1.346  -0.814  0.00  0.00    +0.010 A 
ATOM      7  C   LIG    1        4.417   2.106  -1.825  0.00  0.00    +0.001 A 
ATOM      8  C   LIG    1        3.658   2.592  -2.884  0.00  0.00    +0.002 A 
ATOM      9  C   LIG    1        2.291   2.340  -2.983  0.00  0.00    +0.026 A 
ATOM     10  C   LIG    1        1.697   1.571  -1.971  0.00  0.00    +0.052 A 
ATOM     11  N   LIG    1        0.376   1.171  -1.805  0.00  0.00    -0.312 N 
ATOM     12  C   LIG    1       -0.764   1.495  -2.646  0.00  0.00    +0.222 C 
ATOM     13  O   LIG    1       -1.565   0.365  -2.821  0.00  0.00    -0.333 OA
ATOM     14  C   LIG    1       -2.554   0.356  -1.839  0.00  0.00    +0.222 C 
ATOM     15  N   LIG    1       -2.083  -0.269  -0.608  0.00  0.00    -0.312 N 
ATOM     16  C   LIG    1       -0.798  -0.205  -0.093  0.00  0.00    +0.077 A 
ATOM     17  C   LIG    1       -0.700  -0.927   1.111  0.00  0.00    +0.023 A 
ATOM     18  C   LIG    1       -1.998  -1.430   1.364  0.00  0.00    +0.008 A 
ATOM     19  C   LIG    1       -2.551  -2.206   2.399  0.00  0.00    +0.010 A 
ATOM     20  C   LIG    1       -3.901  -2.540   2.350  0.00  0.00    +0.001 A 
ATOM     21  C   LIG    1       -4.708  -2.122   1.299  0.00  0.00    +0.002 A 
ATOM     22  C   LIG    1       -4.205  -1.354   0.250  0.00  0.00    +0.026 A 
ATOM     23  C   LIG    1       -2.845  -1.013   0.288  0.00  0.00    +0.052 A 
ATOM     24  C   LIG    1       -2.962   1.811  -1.706  0.00  0.00    +0.059 C 
ATOM     25  C   LIG    1       -1.679   2.569  -2.058  0.00  0.00    +0.059 C 
ATOM     26  C   LIG    1        0.315   0.427  -0.641  0.00  0.00    +0.077 A 
ATOM     27  C   LIG    1        0.564  -0.986   1.745  0.00  0.00    +0.062 A 
ATOM     28  C   LIG    1        1.012  -1.642   3.006  0.00  0.00    +0.260 A 
ATOM     29  O   LIG    1        0.361  -2.300   3.814  0.00  0.00    -0.267 OA
ATOM     30  N   LIG    1        2.327  -1.371   3.104  0.00  0.00    -0.289 N 
ATOM     31  H   LIG    1        2.894  -1.697   3.873  0.00  0.00    +0.172 HD
ENDROOT
TORSDOF 0
