REMARK  Name = DB17352
REMARK                            x       y       z     vdW  Elec       q    Type
REMARK                         _______ _______ _______ _____ _____    ______ ____
ROOT
ATOM      1  CA  ASN A  5        1.067   0.011  -0.033  0.00  0.00    +0.168 C 
ENDROOT
BRANCH   1   3
ATOM      2  C   PRO A  4       -1.180   1.013  -0.461  0.00  0.00    +0.234 C 
ATOM      3  N   ASN A  5       -0.389   0.088   0.107  0.00  0.00    -0.302 N 
ATOM      4  H   ASN A  5       -0.814  -0.651   0.649  0.00  0.00    +0.150 HD
ATOM      5  O   PRO A  4       -0.765   1.956  -1.136  0.00  0.00    -0.274 OA
BRANCH   2   8
ATOM      6  C   PHE A  3       -2.897   0.868   2.263  0.00  0.00    +0.237 C 
ATOM      7  N   PRO A  4       -3.130   1.448   1.059  0.00  0.00    -0.288 N 
ATOM      8  CA  PRO A  4       -2.692   0.838  -0.211  0.00  0.00    +0.162 C 
ATOM      9  CB  PRO A  4       -3.581   1.532  -1.258  0.00  0.00    +0.033 C 
ATOM     10  CG  PRO A  4       -3.829   2.918  -0.686  0.00  0.00    +0.021 C 
ATOM     11  CD  PRO A  4       -3.913   2.664   0.815  0.00  0.00    +0.109 C 
ATOM     12  O   PHE A  3       -2.311  -0.209   2.388  0.00  0.00    -0.274 OA
BRANCH   6  13
ATOM     13  CA  PHE A  3       -3.470   1.549   3.529  0.00  0.00    +0.163 C 
BRANCH  13  15
ATOM     14  C   MET A  2       -5.649   0.976   4.592  0.00  0.00    +0.234 C 
ATOM     15  N   PHE A  3       -4.468   0.629   4.063  0.00  0.00    -0.302 N 
ATOM     16  H   PHE A  3       -4.240  -0.351   3.971  0.00  0.00    +0.150 HD
ATOM     17  O   MET A  2       -6.039   2.135   4.746  0.00  0.00    -0.274 OA
BRANCH  14  18
ATOM     18  CA  MET A  2       -6.563  -0.199   4.986  0.00  0.00    +0.160 C 
BRANCH  18  19
ATOM     19  N   MET A  2       -7.287   0.072   6.229  0.00  0.00    -0.305 N 
ATOM     20  H   MET A  2       -8.270   0.277   6.124  0.00  0.00    +0.149 HD
ATOM     21  C   TYR A  1       -6.728   0.136   7.450  0.00  0.00    +0.199 C 
ATOM     22  O   TYR A  1       -5.532  -0.086   7.666  0.00  0.00    -0.278 OA
BRANCH  21  23
ATOM     23  CA  TYR A  1       -7.693   0.555   8.587  0.00  0.00    +0.017 C 
BRANCH  23  24
ATOM     24  N   TYR A  1       -7.379  -0.314   9.778  0.00  0.00    +0.386 N 
ATOM     25  H1  TYR A  1       -6.383  -0.284   9.948  0.00  0.00    -0.089 HD
ATOM     26  H2  TYR A  1       -7.872   0.046  10.583  0.00  0.00    -0.089 HD
ATOM     27  H3  TYR A  1       -7.673  -1.261   9.588  0.00  0.00    -0.089 HD
ENDBRANCH  23  24
BRANCH  23  28
ATOM     28  CB  TYR A  1       -7.578   2.068   8.905  0.00  0.00    +0.028 C 
BRANCH  28  29
ATOM     29  CG  TYR A  1       -8.570   2.597   9.930  0.00  0.00    -0.048 A 
ATOM     30  CD2 TYR A  1       -8.158   2.858  11.254  0.00  0.00    +0.007 A 
ATOM     31  CE2 TYR A  1       -9.082   3.348  12.199  0.00  0.00    +0.045 A 
ATOM     32  CZ  TYR A  1      -10.420   3.580  11.823  0.00  0.00    +0.117 A 
ATOM     33  CE1 TYR A  1      -10.833   3.321  10.502  0.00  0.00    +0.045 A 
ATOM     34  CD1 TYR A  1       -9.911   2.830   9.557  0.00  0.00    +0.007 A 
BRANCH  32  35
ATOM     35  OH  TYR A  1      -11.316   4.056  12.735  0.00  0.00    -0.507 OA
ATOM     36  HH  TYR A  1      -10.934   4.205  13.603  0.00  0.00    +0.292 HD
ENDBRANCH  32  35
ENDBRANCH  28  29
ENDBRANCH  23  28
ENDBRANCH  21  23
ENDBRANCH  18  19
BRANCH  18  37
ATOM     37  CB  MET A  2       -7.593  -0.540   3.881  0.00  0.00    +0.042 C 
BRANCH  37  38
ATOM     38  CG  MET A  2       -7.028  -0.779   2.464  0.00  0.00    +0.071 C 
BRANCH  38  40
ATOM     39  CE  MET A  2       -6.657  -3.531   2.776  0.00  0.00    +0.084 C 
ATOM     40  SD  MET A  2       -5.734  -2.047   2.301  0.00  0.00    -0.164 S 
ENDBRANCH  38  40
ENDBRANCH  37  38
ENDBRANCH  18  37
ENDBRANCH  14  18
ENDBRANCH  13  15
BRANCH  13  41
ATOM     41  CB  PHE A  3       -2.424   1.856   4.636  0.00  0.00    +0.067 C 
BRANCH  41  42
ATOM     42  CG  PHE A  3       -1.521   0.729   5.118  0.00  0.00    -0.045 A 
ATOM     43  CD2 PHE A  3       -0.232   0.558   4.567  0.00  0.00    +0.004 A 
ATOM     44  CE2 PHE A  3        0.551  -0.521   4.955  0.00  0.00    +0.000 A 
ATOM     45  CZ  PHE A  3        0.064  -1.450   5.866  0.00  0.00    +0.000 A 
ATOM     46  CE1 PHE A  3       -1.214  -1.311   6.395  0.00  0.00    +0.000 A 
ATOM     47  CD1 PHE A  3       -2.012  -0.238   6.022  0.00  0.00    +0.004 A 
ENDBRANCH  41  42
ENDBRANCH  13  41
ENDBRANCH   6  13
ENDBRANCH   2   8
ENDBRANCH   1   3
BRANCH   1  48
ATOM     48  C   ASN A  5        1.491  -0.542  -1.407  0.00  0.00    +0.234 C 
ATOM     49  N   ALA A  6        2.695  -0.142  -1.845  0.00  0.00    -0.303 N 
ATOM     50  H   ALA A  6        3.252   0.480  -1.277  0.00  0.00    +0.149 HD
ATOM     51  O   ASN A  5        0.746  -1.304  -2.026  0.00  0.00    -0.274 OA
BRANCH  49  52
ATOM     52  CA  ALA A  6        3.283  -0.523  -3.128  0.00  0.00    +0.156 C 
ATOM     53  CB  ALA A  6        2.694   0.371  -4.235  0.00  0.00    +0.038 C 
BRANCH  52  54
ATOM     54  C   ALA A  6        4.815  -0.361  -3.060  0.00  0.00    +0.236 C 
ATOM     55  N   PRO A  7        5.581  -1.292  -3.681  0.00  0.00    -0.288 N 
ATOM     56  CA  PRO A  7        7.055  -1.234  -3.688  0.00  0.00    +0.162 C 
ATOM     57  CB  PRO A  7        7.466  -2.604  -4.255  0.00  0.00    +0.033 C 
ATOM     58  CG  PRO A  7        6.311  -3.015  -5.153  0.00  0.00    +0.021 C 
ATOM     59  CD  PRO A  7        5.093  -2.457  -4.426  0.00  0.00    +0.109 C 
ATOM     60  O   ALA A  6        5.279   0.603  -2.446  0.00  0.00    -0.274 OA
BRANCH  56  61
ATOM     61  C   PRO A  7        7.597  -0.063  -4.530  0.00  0.00    +0.234 C 
ATOM     62  N   TYR A  8        8.362   0.826  -3.873  0.00  0.00    -0.302 N 
ATOM     63  H   TYR A  8        8.543   0.689  -2.890  0.00  0.00    +0.150 HD
ATOM     64  O   PRO A  7        7.309   0.015  -5.725  0.00  0.00    -0.274 OA
BRANCH  62  65
ATOM     65  CA  TYR A  8        9.012   1.986  -4.485  0.00  0.00    +0.163 C 
BRANCH  65  66
ATOM     66  C   TYR A  8       10.129   1.583  -5.469  0.00  0.00    +0.234 C 
ATOM     67  N   LEU A  9       10.320   2.425  -6.496  0.00  0.00    -0.301 N 
ATOM     68  H   LEU A  9        9.767   3.269  -6.543  0.00  0.00    +0.150 HD
ATOM     69  O   TYR A  8       10.796   0.569  -5.260  0.00  0.00    -0.274 OA
BRANCH  67  70
ATOM     70  CA  LEU A  9       11.339   2.296  -7.547  0.00  0.00    +0.182 C 
BRANCH  70  71
ATOM     71  C   LEU A  9       11.748   3.749  -8.003  0.00  0.00    +0.325 C 
ATOM     72  OXT LEU A  9       12.980   3.973  -7.974  0.00  0.00    -0.249 OA
BRANCH  71  73
ATOM     73  O   LEU A  9       10.819   4.516  -8.360  0.00  0.00    -0.479 OA
ATOM     74  H   LEU A  9       11.013   5.389  -8.639  0.00  0.00    +0.295 HD
ENDBRANCH  71  73
ENDBRANCH  70  71
BRANCH  70  75
ATOM     75  CB  LEU A  9       10.771   1.530  -8.784  0.00  0.00    +0.036 C 
BRANCH  75  76
ATOM     76  CG  LEU A  9       10.570   0.007  -8.598  0.00  0.00    -0.015 C 
ATOM     77  CD2 LEU A  9        9.836  -0.606  -9.810  0.00  0.00    +0.007 C 
ATOM     78  CD1 LEU A  9       11.890  -0.729  -8.279  0.00  0.00    +0.007 C 
ENDBRANCH  75  76
ENDBRANCH  70  75
ENDBRANCH  67  70
ENDBRANCH  65  66
BRANCH  65  79
ATOM     79  CB  TYR A  8        9.532   2.913  -3.361  0.00  0.00    +0.067 C 
BRANCH  79  80
ATOM     80  CG  TYR A  8       10.269   4.156  -3.836  0.00  0.00    -0.045 A 
ATOM     81  CD2 TYR A  8        9.552   5.214  -4.434  0.00  0.00    +0.007 A 
ATOM     82  CE2 TYR A  8       10.235   6.341  -4.930  0.00  0.00    +0.045 A 
ATOM     83  CZ  TYR A  8       11.637   6.417  -4.826  0.00  0.00    +0.117 A 
ATOM     84  CE1 TYR A  8       12.356   5.368  -4.220  0.00  0.00    +0.045 A 
ATOM     85  CD1 TYR A  8       11.673   4.240  -3.725  0.00  0.00    +0.007 A 
BRANCH  83  86
ATOM     86  OH  TYR A  8       12.301   7.504  -5.314  0.00  0.00    -0.507 OA
ATOM     87  HH  TYR A  8       11.720   8.130  -5.753  0.00  0.00    +0.292 HD
ENDBRANCH  83  86
ENDBRANCH  79  80
ENDBRANCH  65  79
ENDBRANCH  62  65
ENDBRANCH  56  61
ENDBRANCH  52  54
ENDBRANCH  49  52
ENDBRANCH   1  48
BRANCH   1  88
ATOM     88  CB  ASN A  5        1.678  -0.784   1.153  0.00  0.00    +0.127 C 
BRANCH  88  89
ATOM     89  CG  ASN A  5        1.160  -2.212   1.403  0.00  0.00    +0.213 C 
ATOM     90  OD1 ASN A  5        0.255  -2.706   0.735  0.00  0.00    -0.276 OA
ATOM     91  ND2 ASN A  5        1.747  -2.886   2.395  0.00  0.00    -0.329 N 
ATOM     92 HD21 ASN A  5        1.451  -3.827   2.610  0.00  0.00    +0.145 HD
ATOM     93 HD22 ASN A  5        2.490  -2.465   2.933  0.00  0.00    +0.145 HD
ENDBRANCH  88  89
ENDBRANCH   1  88
TORSDOF 32
