REMARK  Name = DB17543
REMARK                            x       y       z     vdW  Elec       q    Type
REMARK                         _______ _______ _______ _____ _____    ______ ____
ROOT
ATOM      1  C   LIG    1        1.840   0.273  -0.282  0.00  0.00    +0.007 A 
ATOM      2  C   LIG    1        2.454   0.893   0.809  0.00  0.00    +0.120 A 
ATOM      3  N   LIG    1        3.777   0.806   1.095  0.00  0.00    -0.252 NA
ATOM      4  C   LIG    1        4.540   0.072   0.275  0.00  0.00    +0.096 A 
ATOM      5  C   LIG    1        5.956  -0.190   0.302  0.00  0.00    +0.026 A 
ATOM      6  C   LIG    1        6.184  -0.988  -0.808  0.00  0.00    +0.097 A 
ATOM      7  N   LIG    1        5.018  -1.261  -1.496  0.00  0.00    -0.336 N 
ATOM      8  C   LIG    1        3.983  -0.597  -0.858  0.00  0.00    +0.069 A 
ATOM      9  C   LIG    1        2.615  -0.502  -1.150  0.00  0.00    +0.038 A 
ENDROOT
BRANCH   1  16
ATOM     10  C   LIG    1       -0.447  -2.047  -1.120  0.00  0.00    +0.090 C 
ATOM     11  C   LIG    1       -0.533  -0.559  -0.873  0.00  0.00    +0.142 A 
ATOM     12  O   LIG    1       -1.763  -0.007  -1.001  0.00  0.00    -0.359 OA
ATOM     13  N   LIG    1       -1.669   1.354  -0.729  0.00  0.00    -0.083 NA
ATOM     14  C   LIG    1       -0.405   1.594  -0.460  0.00  0.00    +0.089 A 
ATOM     15  C   LIG    1        0.012   3.017  -0.153  0.00  0.00    +0.070 C 
ATOM     16  C   LIG    1        0.376   0.428  -0.524  0.00  0.00    +0.048 A 
ENDBRANCH   1  16
BRANCH   5  17
ATOM     17  C   LIG    1        6.983   0.282   1.285  0.00  0.00    -0.014 A 
ATOM     18  C   LIG    1        6.634   0.623   2.593  0.00  0.00    +0.009 A 
ATOM     19  C   LIG    1        7.598   1.087   3.483  0.00  0.00    +0.015 A 
ATOM     20  C   LIG    1        8.943   1.232   3.093  0.00  0.00    +0.059 A 
ATOM     21  C   LIG    1        9.276   0.893   1.769  0.00  0.00    +0.015 A 
ATOM     22  C   LIG    1        8.311   0.430   0.878  0.00  0.00    +0.009 A 
BRANCH  20  23
ATOM     23  C   LIG    1        9.993   1.737   4.064  0.00  0.00    +0.337 C 
ATOM     24  O   LIG    1        9.645   2.035   5.231  0.00  0.00    -0.245 OA
BRANCH  23  25
ATOM     25  O   LIG    1       11.180   1.841   3.671  0.00  0.00    -0.477 OA
ATOM     26  H   LIG    1       11.405   1.609   2.791  0.00  0.00    +0.295 HD
ENDBRANCH  23  25
ENDBRANCH  20  23
ENDBRANCH   5  17
BRANCH   7  27
ATOM     27  C   LIG    1        4.879  -2.046  -2.737  0.00  0.00    +0.133 C 
ATOM     28  C   LIG    1        6.076  -2.986  -2.999  0.00  0.00    +0.037 C 
BRANCH  27  29
ATOM     29  C   LIG    1        4.539  -1.202  -3.970  0.00  0.00    +0.064 A 
ATOM     30  N   LIG    1        5.178  -0.006  -4.101  0.00  0.00    -0.258 NA
ATOM     31  C   LIG    1        4.893   0.756  -5.187  0.00  0.00    +0.111 A 
ATOM     32  C   LIG    1        3.982   0.365  -6.169  0.00  0.00    +0.020 A 
ATOM     33  C   LIG    1        3.339  -0.866  -6.028  0.00  0.00    +0.003 A 
ATOM     34  C   LIG    1        3.618  -1.665  -4.918  0.00  0.00    +0.025 A 
ENDBRANCH  27  29
ENDBRANCH   7  27
TORSDOF 6
