REMARK  Name = DB17760
REMARK                            x       y       z     vdW  Elec       q    Type
REMARK                         _______ _______ _______ _____ _____    ______ ____
ROOT
ATOM      1  C   LIG    1       -0.698   0.659   0.167  0.00  0.00    +0.234 C 
ATOM      2  N   LIG    1        0.292  -0.176   0.529  0.00  0.00    -0.307 N 
ATOM      3  H   LIG    1        0.070  -1.150   0.671  0.00  0.00    +0.149 HD
ATOM      4  O   LIG    1       -0.543   1.859  -0.064  0.00  0.00    -0.274 OA
ENDROOT
BRANCH   1   5
ATOM      5  C   LIG    1       -2.097   0.025   0.004  0.00  0.00    +0.165 C 
BRANCH   5  13
ATOM      6  C   LIG    1       -7.754   0.077   4.843  0.00  0.00    -0.096 C 
ATOM      7  N   LIG    1       -6.484   0.840   4.418  0.00  0.00    +0.380 N 
ATOM      8  H   LIG    1       -6.517   1.778   4.795  0.00  0.00    -0.082 HD
ATOM      9  C   LIG    1       -5.224   0.138   4.967  0.00  0.00    -0.060 C 
ATOM     10  C   LIG    1       -3.962   0.916   4.531  0.00  0.00    +0.091 C 
ATOM     11  N   LIG    1       -3.954   1.005   3.055  0.00  0.00    -0.289 N 
ATOM     12  C   LIG    1       -3.007   0.346   2.327  0.00  0.00    +0.303 C 
ATOM     13  N   LIG    1       -3.043   0.552   0.994  0.00  0.00    -0.288 N 
ATOM     14  H   LIG    1       -3.767   1.147   0.617  0.00  0.00    +0.151 HD
ATOM     15  O   LIG    1       -2.153  -0.379   2.845  0.00  0.00    -0.253 OA
ATOM     16  C   LIG    1       -5.124   1.708   2.476  0.00  0.00    +0.091 C 
ATOM     17  C   LIG    1       -6.401   0.936   2.880  0.00  0.00    -0.060 C 
ENDBRANCH   5  13
BRANCH   5  18
ATOM     18  C   LIG    1       -2.690   0.226  -1.415  0.00  0.00    +0.067 C 
BRANCH  18  19
ATOM     19  C   LIG    1       -1.902  -0.388  -2.563  0.00  0.00    -0.045 A 
ATOM     20  C   LIG    1       -2.046  -1.758  -2.869  0.00  0.00    +0.004 A 
ATOM     21  C   LIG    1       -1.269  -2.332  -3.868  0.00  0.00    +0.000 A 
ATOM     22  C   LIG    1       -0.327  -1.569  -4.547  0.00  0.00    +0.000 A 
ATOM     23  C   LIG    1       -0.139  -0.232  -4.222  0.00  0.00    +0.000 A 
ATOM     24  C   LIG    1       -0.907   0.360  -3.229  0.00  0.00    +0.004 A 
ENDBRANCH  18  19
ENDBRANCH   5  18
ENDBRANCH   1   5
BRANCH   2  25
ATOM     25  C   LIG    1        1.712   0.177   0.606  0.00  0.00    +0.098 C 
BRANCH  25  26
ATOM     26  C   LIG    1        2.376  -0.036  -0.755  0.00  0.00    +0.014 C 
ATOM     27  C   LIG    1        3.485  -0.754  -1.019  0.00  0.00    +0.137 C 
BRANCH  27  28
ATOM     28  S   LIG    1        4.089  -0.930  -2.706  0.00  0.00    +0.018 S 
ATOM     29  O   LIG    1        5.534  -0.672  -2.692  0.00  0.00    -0.165 OA
ATOM     30  O   LIG    1        3.209  -0.189  -3.617  0.00  0.00    -0.165 OA
BRANCH  28  31
ATOM     31  C   LIG    1        3.837  -2.671  -3.047  0.00  0.00    +0.093 A 
ATOM     32  C   LIG    1        2.534  -3.172  -3.086  0.00  0.00    +0.027 A 
ATOM     33  C   LIG    1        2.317  -4.521  -3.354  0.00  0.00    +0.002 A 
ATOM     34  C   LIG    1        3.404  -5.362  -3.580  0.00  0.00    +0.000 A 
ATOM     35  C   LIG    1        4.707  -4.867  -3.539  0.00  0.00    +0.002 A 
ATOM     36  C   LIG    1        4.926  -3.518  -3.273  0.00  0.00    +0.027 A 
ENDBRANCH  28  31
ENDBRANCH  27  28
ENDBRANCH  25  26
BRANCH  25  37
ATOM     37  C   LIG    1        2.387  -0.522   1.815  0.00  0.00    +0.031 C 
BRANCH  37  38
ATOM     38  C   LIG    1        1.756  -0.178   3.181  0.00  0.00    +0.037 C 
BRANCH  38  39
ATOM     39  C   LIG    1        2.464  -0.863   4.340  0.00  0.00    -0.047 A 
ATOM     40  C   LIG    1        3.517  -0.219   4.995  0.00  0.00    +0.003 A 
ATOM     41  C   LIG    1        4.169  -0.851   6.051  0.00  0.00    +0.000 A 
ATOM     42  C   LIG    1        3.766  -2.125   6.446  0.00  0.00    +0.000 A 
ATOM     43  C   LIG    1        2.718  -2.773   5.796  0.00  0.00    +0.000 A 
ATOM     44  C   LIG    1        2.065  -2.141   4.741  0.00  0.00    +0.003 A 
ENDBRANCH  38  39
ENDBRANCH  37  38
ENDBRANCH  25  37
ENDBRANCH   2  25
TORSDOF 11
