REMARK  Name = DB17877
REMARK                            x       y       z     vdW  Elec       q    Type
REMARK                         _______ _______ _______ _____ _____    ______ ____
ROOT
ATOM      1  C   UNK A  1       -0.655   1.028  -0.064  0.00  0.00    +0.214 C 
ATOM      2  N   UNK A  1        0.184  -0.012   0.087  0.00  0.00    -0.303 N 
ATOM      3  H   UNK A  1       -0.196  -0.942   0.183  0.00  0.00    +0.149 HD
ATOM      4  O   UNK A  1       -0.266   2.191  -0.187  0.00  0.00    -0.276 OA
ENDROOT
BRANCH   1   5
ATOM      5  C   UNK A  1       -2.153   0.686  -0.070  0.00  0.00    +0.095 C 
BRANCH   5   6
ATOM      6  C   UNK A  1       -3.087   1.903   0.149  0.00  0.00    +0.004 C 
BRANCH   6   7
ATOM      7  C   UNK A  1       -4.598   1.574   0.037  0.00  0.00    +0.036 C 
BRANCH   7   8
ATOM      8  N   UNK A  1       -5.369   2.894  -0.136  0.00  0.00    +0.387 N 
ATOM      9  H   UNK A  1       -5.224   3.488   0.668  0.00  0.00    -0.089 HD
ATOM     10  H   UNK A  1       -5.040   3.378  -0.959  0.00  0.00    -0.089 HD
ATOM     11  H   UNK A  1       -6.356   2.709  -0.243  0.00  0.00    -0.089 HD
ENDBRANCH   7   8
BRANCH   7  12
ATOM     12  C   UNK A  1       -5.147   0.849   1.298  0.00  0.00    +0.290 C 
ATOM     13  O   UNK A  1       -4.972  -0.389   1.339  0.00  0.00    -0.253 OA
BRANCH  12  14
ATOM     14  O   UNK A  1       -5.707   1.503   2.210  0.00  0.00    -0.482 OA
ATOM     15  H   UNK A  1       -6.037   1.061   2.968  0.00  0.00    +0.295 HD
ENDBRANCH  12  14
ENDBRANCH   7  12
ENDBRANCH   6   7
ENDBRANCH   5   6
ENDBRANCH   1   5
BRANCH   2  16
ATOM     16  C   UNK A  1        1.648   0.078   0.093  0.00  0.00    +0.170 C 
BRANCH  16  17
ATOM     17  C   UNK A  1        2.193   0.325  -1.325  0.00  0.00    +0.235 C 
ATOM     18  N   GLY A  2        3.249   1.152  -1.408  0.00  0.00    -0.303 N 
ATOM     19  H   GLY A  2        3.591   1.591  -0.566  0.00  0.00    +0.149 HD
ATOM     20  O   UNK A  1        1.680  -0.248  -2.288  0.00  0.00    -0.274 OA
BRANCH  18  21
ATOM     21  CA  GLY A  2        3.954   1.492  -2.654  0.00  0.00    +0.224 C 
BRANCH  21  22
ATOM     22  C   GLY A  2        5.034   0.465  -3.090  0.00  0.00    +0.322 C 
ATOM     23  OXT GLY A  2        5.510   0.630  -4.236  0.00  0.00    -0.249 OA
BRANCH  22  24
ATOM     24  O   GLY A  2        5.402  -0.443  -2.307  0.00  0.00    -0.480 OA
ATOM     25  H   GLY A  2        6.054  -1.059  -2.577  0.00  0.00    +0.295 HD
ENDBRANCH  22  24
ENDBRANCH  21  22
ENDBRANCH  18  21
ENDBRANCH  16  17
BRANCH  16  26
ATOM     26  C   UNK A  1        2.301  -1.188   0.696  0.00  0.00    +0.129 C 
BRANCH  26  27
ATOM     27  S   UNK A  1        1.833  -1.431   2.439  0.00  0.00    +0.022 S 
BRANCH  27  28
ATOM     28  N   UNK A  1        2.705  -2.846   2.629  0.00  0.00    +0.005 NA
ATOM     29  O   UNK A  1        2.643  -3.337   3.707  0.00  0.00    -0.136 OA
ENDBRANCH  27  28
ENDBRANCH  26  27
ENDBRANCH  16  26
ENDBRANCH   2  16
TORSDOF 14
