REMARK  Name = DB17744
REMARK                            x       y       z     vdW  Elec       q    Type
REMARK                         _______ _______ _______ _____ _____    ______ ____
ROOT
ATOM      1  C   LIG    1        3.723  -1.182   0.580  0.00  0.00    +0.266 C 
ENDROOT
BRANCH   1   2
ATOM      2  O   LIG    1        2.304  -1.123   0.673  0.00  0.00    -0.461 OA
BRANCH   2   3
ATOM      3  C   LIG    1        1.604  -0.178   0.007  0.00  0.00    +0.328 C 
ATOM      4  O   LIG    1        2.107   0.685  -0.722  0.00  0.00    -0.249 OA
BRANCH   3   5
ATOM      5  C   LIG    1        0.104  -0.314   0.266  0.00  0.00    +0.184 C 
BRANCH   5   7
ATOM      6  C   LIG    1       -1.374   1.572   1.032  0.00  0.00    +0.199 C 
ATOM      7  N   LIG    1       -0.413   1.063   0.240  0.00  0.00    -0.304 N 
ATOM      8  H   LIG    1        0.076   1.687  -0.386  0.00  0.00    +0.149 HD
ATOM      9  O   LIG    1       -1.992   0.893   1.859  0.00  0.00    -0.278 OA
BRANCH   6  10
ATOM     10  C   LIG    1       -1.658   3.093   0.819  0.00  0.00    +0.015 C 
BRANCH  10  11
ATOM     11  N   LIG    1       -3.061   3.383   1.289  0.00  0.00    +0.386 N 
ATOM     12  H   LIG    1       -3.123   3.191   2.279  0.00  0.00    -0.089 HD
ATOM     13  H   LIG    1       -3.270   4.356   1.116  0.00  0.00    -0.089 HD
ATOM     14  H   LIG    1       -3.708   2.799   0.778  0.00  0.00    -0.089 HD
ENDBRANCH  10  11
BRANCH  10  16
ATOM     15  C   LIG    1        0.830   3.864   0.876  0.00  0.00    +0.006 C 
ATOM     16  C   LIG    1       -0.573   3.998   1.505  0.00  0.00    -0.023 C 
ATOM     17  C   LIG    1       -0.441   3.802   3.033  0.00  0.00    +0.006 C 
ENDBRANCH  10  16
ENDBRANCH   6  10
ENDBRANCH   5   7
BRANCH   5  18
ATOM     18  C   LIG    1       -0.609  -1.260  -0.757  0.00  0.00    +0.014 C 
ATOM     19  C   LIG    1       -0.003  -2.677  -0.838  0.00  0.00    +0.009 C 
ATOM     20  C   LIG    1       -2.130  -1.360  -0.535  0.00  0.00    +0.009 C 
ENDBRANCH   5  18
ENDBRANCH   3   5
ENDBRANCH   2   3
ENDBRANCH   1   2
BRANCH   1  21
ATOM     21  C   LIG    1        4.247  -2.323   1.468  0.00  0.00    +0.183 C 
BRANCH  21  22
ATOM     22  O   LIG    1        3.952  -1.989   2.826  0.00  0.00    -0.350 OA
BRANCH  22  23
ATOM     23  C   LIG    1        3.548  -3.039   3.650  0.00  0.00    +0.288 C 
BRANCH  23  24
ATOM     24  N   LIG    1        2.110  -3.394   3.325  0.00  0.00    -0.291 N 
ATOM     25  C   LIG    1        1.012  -2.616   3.561  0.00  0.00    +0.171 A 
ATOM     26  N   LIG    1        0.995  -1.378   4.136  0.00  0.00    -0.196 NA
ATOM     27  C   LIG    1       -0.195  -0.884   4.238  0.00  0.00    +0.195 A 
ATOM     28  N   LIG    1       -1.326  -1.551   3.793  0.00  0.00    -0.293 N 
ATOM     29  H   LIG    1       -2.215  -1.086   3.907  0.00  0.00    +0.172 HD
ATOM     30  C   LIG    1       -1.393  -2.785   3.194  0.00  0.00    +0.280 A 
ATOM     31  O   LIG    1       -2.453  -3.282   2.819  0.00  0.00    -0.265 OA
ATOM     32  C   LIG    1       -0.057  -3.335   3.099  0.00  0.00    +0.172 A 
ATOM     33  N   LIG    1        0.330  -4.514   2.590  0.00  0.00    -0.229 NA
ATOM     34  C   LIG    1        1.633  -4.513   2.740  0.00  0.00    +0.203 A 
BRANCH  27  35
ATOM     35  N   LIG    1       -0.399   0.320   4.788  0.00  0.00    -0.329 N 
ATOM     36  H   LIG    1       -1.331   0.695   4.879  0.00  0.00    +0.145 HD
ATOM     37  H   LIG    1        0.383   0.854   5.141  0.00  0.00    +0.145 HD
ENDBRANCH  27  35
ENDBRANCH  23  24
ENDBRANCH  22  23
ENDBRANCH  21  22
BRANCH  21  38
ATOM     38  C   LIG    1        5.761  -2.578   1.314  0.00  0.00    +0.190 C 
BRANCH  38  39
ATOM     39  O   LIG    1        6.528  -1.422   1.591  0.00  0.00    -0.392 OA
ATOM     40  H   LIG    1        7.458  -1.638   1.489  0.00  0.00    +0.210 HD
ENDBRANCH  38  39
ENDBRANCH  21  38
ENDBRANCH   1  21
TORSDOF 15
