REMARK  Name = DB17054
REMARK                            x       y       z     vdW  Elec       q    Type
REMARK                         _______ _______ _______ _____ _____    ______ ____
ROOT
ATOM      1  C   LIG    1        2.123  -1.367  -0.088  0.00  0.00    +0.162 C 
ENDROOT
BRANCH   1   2
ATOM      2  C   LIG    1        1.902  -2.012  -1.461  0.00  0.00    -0.017 A 
ATOM      3  C   LIG    1        2.113  -1.275  -2.629  0.00  0.00    +0.010 A 
ATOM      4  C   LIG    1        1.932  -1.871  -3.873  0.00  0.00    +0.046 A 
ATOM      5  C   LIG    1        1.536  -3.215  -3.963  0.00  0.00    +0.120 A 
ATOM      6  C   LIG    1        1.324  -3.942  -2.791  0.00  0.00    +0.046 A 
ATOM      7  C   LIG    1        1.504  -3.348  -1.546  0.00  0.00    +0.010 A 
BRANCH   5   8
ATOM      8  O   LIG    1        1.337  -3.891  -5.152  0.00  0.00    -0.495 OA
ATOM      9  C   LIG    1        1.545  -3.208  -6.383  0.00  0.00    +0.277 C 
ENDBRANCH   5   8
ENDBRANCH   1   2
BRANCH   1  10
ATOM     10  O   LIG    1        1.484  -0.094  -0.013  0.00  0.00    -0.371 OA
BRANCH  10  11
ATOM     11  C   LIG    1        0.060  -0.123   0.025  0.00  0.00    +0.161 C 
BRANCH  11  12
ATOM     12  C   LIG    1       -0.457   1.318   0.162  0.00  0.00    +0.033 C 
BRANCH  12  13
ATOM     13  C   LIG    1       -1.994   1.433   0.202  0.00  0.00    +0.037 C 
BRANCH  13  17
ATOM     14  C   LIG    1       -3.771  -0.540   3.613  0.00  0.00    +0.120 A 
ATOM     15  C   LIG    1       -3.849  -1.123   2.338  0.00  0.00    +0.046 A 
ATOM     16  C   LIG    1       -3.281  -0.484   1.238  0.00  0.00    +0.007 A 
ATOM     17  C   LIG    1       -2.629   0.739   1.400  0.00  0.00    -0.047 A 
ATOM     18  C   LIG    1       -2.552   1.325   2.665  0.00  0.00    +0.007 A 
ATOM     19  C   LIG    1       -3.120   0.686   3.763  0.00  0.00    +0.046 A 
BRANCH  14  21
ATOM     20  C   LIG    1       -4.979  -2.349   4.673  0.00  0.00    +0.277 C 
ATOM     21  O   LIG    1       -4.301  -1.100   4.759  0.00  0.00    -0.495 OA
ENDBRANCH  14  21
ENDBRANCH  13  17
ENDBRANCH  12  13
ENDBRANCH  11  12
ENDBRANCH  10  11
ENDBRANCH   1  10
BRANCH   1  22
ATOM     22  C   LIG    1        3.617  -1.143   0.235  0.00  0.00    +0.122 C 
BRANCH  22  23
ATOM     23  N   LIG    1        4.369  -2.392   0.218  0.00  0.00    -0.276 NA
ATOM     24  C   LIG    1        5.229  -2.813  -0.778  0.00  0.00    +0.157 C 
ATOM     25  N   LIG    1        5.713  -4.054  -0.431  0.00  0.00    -0.293 NA
ATOM     26  H   LIG    1        6.359  -4.606  -0.978  0.00  0.00    +0.124 HD
ATOM     27  C   LIG    1        5.164  -4.426   0.782  0.00  0.00    +0.092 C 
ATOM     28  C   LIG    1        4.324  -3.391   1.183  0.00  0.00    +0.095 C 
ENDBRANCH  22  23
ENDBRANCH   1  22
TORSDOF 10
