REMARK  Name = DB17168
REMARK                            x       y       z     vdW  Elec       q    Type
REMARK                         _______ _______ _______ _____ _____    ______ ____
ROOT
ATOM      1  C   LIG    1       -0.555   1.448  -2.490  0.00  0.00    +0.092 C 
ATOM      2  C   LIG    1       -0.956   0.342  -3.579  0.00  0.00    +0.034 C 
ATOM      3  C   LIG    1       -1.115   1.016  -4.983  0.00  0.00    +0.017 C 
ATOM      4  C   LIG    1        0.169  -0.727  -3.642  0.00  0.00    +0.133 C 
ATOM      5  C   LIG    1        1.626  -0.233  -3.800  0.00  0.00    +0.068 C 
ATOM      6  C   LIG    1        1.946   1.230  -3.435  0.00  0.00    +0.167 C 
ATOM      7  O   LIG    1        1.907   2.119  -4.636  0.00  0.00    -0.368 OA
ATOM      8  C   LIG    1        1.014   3.082  -3.928  0.00  0.00    +0.211 C 
ATOM      9  O   LIG    1       -0.086  -1.639  -4.713  0.00  0.00    -0.344 OA
ATOM     10  C   LIG    1       -1.253  -2.376  -4.494  0.00  0.00    +0.275 C 
ATOM     11  O   LIG    1       -2.377  -1.528  -4.398  0.00  0.00    -0.340 OA
ATOM     12  C   LIG    1       -2.287  -0.517  -3.376  0.00  0.00    +0.175 C 
ATOM     13  C   LIG    1       -2.819  -1.087  -2.001  0.00  0.00    +0.233 C 
ATOM     14  C   LIG    1       -2.501  -0.231  -0.763  0.00  0.00    -0.016 C 
ATOM     15  C   LIG    1       -3.413   1.006  -0.539  0.00  0.00    +0.022 C 
ATOM     16  C   LIG    1       -4.582   1.201  -1.568  0.00  0.00    +0.018 C 
ATOM     17  C   LIG    1       -4.129   0.845   0.840  0.00  0.00    +0.018 C 
ATOM     18  C   LIG    1       -2.433   2.229  -0.567  0.00  0.00    +0.116 C 
ATOM     19  C   LIG    1       -1.346   2.123   0.550  0.00  0.00    +0.088 C 
ATOM     20  C   LIG    1       -0.996   0.686   1.061  0.00  0.00    +0.205 C 
ATOM     21  C   LIG    1       -1.413  -0.422   0.057  0.00  0.00    -0.029 C 
ATOM     22  C   LIG    1       -0.431  -1.598  -0.038  0.00  0.00    +0.043 C 
ATOM     23  C   LIG    1        0.874   2.105  -2.732  0.00  0.00    +0.169 C 
ATOM     24  C   LIG    1       -1.738   2.419  -2.019  0.00  0.00    +0.217 C 
ENDROOT
BRANCH  10  25
ATOM     25  C   LIG    1       -1.418  -3.339  -5.651  0.00  0.00    +0.026 C 
ATOM     26  C   LIG    1       -2.537  -3.507  -6.376  0.00  0.00    +0.009 C 
ENDBRANCH  10  25
BRANCH  18  27
ATOM     27  O   LIG    1       -3.133   3.451  -0.351  0.00  0.00    -0.384 OA
ATOM     28  H   LIG    1       -3.487   3.445   0.541  0.00  0.00    +0.210 HD
ENDBRANCH  18  27
BRANCH  13  29
ATOM     29  O   LIG    1       -2.618  -2.491  -1.818  0.00  0.00    -0.454 OA
BRANCH  29  30
ATOM     30  C   LIG    1       -3.417  -3.247  -1.025  0.00  0.00    +0.305 C 
ATOM     31  O   LIG    1       -4.385  -2.852  -0.374  0.00  0.00    -0.251 OA
ATOM     32  C   LIG    1       -2.985  -4.707  -1.000  0.00  0.00    +0.136 C 
ENDBRANCH  29  30
ENDBRANCH  13  29
BRANCH  20  33
ATOM     33  O   LIG    1        0.408   0.684   1.350  0.00  0.00    -0.455 OA
BRANCH  33  34
ATOM     34  C   LIG    1        0.934   0.063   2.444  0.00  0.00    +0.338 C 
ATOM     35  O   LIG    1        0.297  -0.559   3.296  0.00  0.00    -0.248 OA
BRANCH  34  36
ATOM     36  C   LIG    1        2.471   0.145   2.509  0.00  0.00    +0.243 C 
BRANCH  36  37
ATOM     37  O   LIG    1        2.825   1.518   2.452  0.00  0.00    -0.379 OA
ATOM     38  H   LIG    1        2.671   1.834   1.558  0.00  0.00    +0.211 HD
ENDBRANCH  36  37
BRANCH  36  39
ATOM     39  C   LIG    1        3.179  -0.684   1.390  0.00  0.00    +0.116 C 
BRANCH  39  40
ATOM     40  N   LIG    1        4.608  -0.351   1.283  0.00  0.00    -0.275 N 
ATOM     41  H   LIG    1        5.221  -0.631   2.035  0.00  0.00    +0.152 HD
ATOM     42  C   LIG    1        5.141   0.386   0.236  0.00  0.00    +0.401 C 
ATOM     43  O   LIG    1        4.521   0.803  -0.744  0.00  0.00    -0.226 OA
BRANCH  42  44
ATOM     44  O   LIG    1        6.465   0.582   0.468  0.00  0.00    -0.445 OA
BRANCH  44  45
ATOM     45  C   LIG    1        7.351   1.348  -0.371  0.00  0.00    +0.107 C 
ATOM     46  C   LIG    1        8.716   1.268   0.342  0.00  0.00    +0.055 C 
ATOM     47  C   LIG    1        7.473   0.723  -1.783  0.00  0.00    +0.055 C 
ATOM     48  C   LIG    1        6.905   2.829  -0.457  0.00  0.00    +0.055 C 
ENDBRANCH  44  45
ENDBRANCH  42  44
ENDBRANCH  39  40
BRANCH  39  49
ATOM     49  C   LIG    1        2.990  -2.215   1.583  0.00  0.00    +0.028 C 
BRANCH  49  50
ATOM     50  C   LIG    1        3.652  -3.132   0.520  0.00  0.00    -0.015 C 
ATOM     51  C   LIG    1        3.484  -4.615   0.896  0.00  0.00    +0.007 C 
ATOM     52  C   LIG    1        3.135  -2.871  -0.908  0.00  0.00    +0.007 C 
ENDBRANCH  49  50
ENDBRANCH  39  49
ENDBRANCH  36  39
ENDBRANCH  34  36
ENDBRANCH  33  34
ENDBRANCH  20  33
BRANCH  23  53
ATOM     53  O   LIG    1        1.312   2.651  -1.465  0.00  0.00    -0.453 OA
BRANCH  53  54
ATOM     54  C   LIG    1        2.461   3.348  -1.223  0.00  0.00    +0.305 C 
ATOM     55  O   LIG    1        3.364   3.592  -2.023  0.00  0.00    -0.251 OA
ATOM     56  C   LIG    1        2.542   3.849   0.213  0.00  0.00    +0.136 C 
ENDBRANCH  53  54
ENDBRANCH  23  53
BRANCH  24  57
ATOM     57  O   LIG    1       -1.252   3.767  -2.164  0.00  0.00    -0.454 OA
BRANCH  57  58
ATOM     58  C   LIG    1       -1.879   4.717  -2.920  0.00  0.00    +0.340 C 
ATOM     59  O   LIG    1       -2.917   4.511  -3.554  0.00  0.00    -0.245 OA
BRANCH  58  60
ATOM     60  C   LIG    1       -1.154   6.031  -2.922  0.00  0.00    +0.059 A 
ATOM     61  C   LIG    1       -1.624   7.070  -3.738  0.00  0.00    +0.015 A 
ATOM     62  C   LIG    1       -0.968   8.298  -3.765  0.00  0.00    +0.001 A 
ATOM     63  C   LIG    1        0.161   8.496  -2.975  0.00  0.00    +0.000 A 
ATOM     64  C   LIG    1        0.639   7.478  -2.157  0.00  0.00    +0.001 A 
ATOM     65  C   LIG    1       -0.016   6.250  -2.128  0.00  0.00    +0.015 A 
ENDBRANCH  58  60
ENDBRANCH  57  58
ENDBRANCH  24  57
TORSDOF 19
