REMARK  Name = DB18088
REMARK                            x       y       z     vdW  Elec       q    Type
REMARK                         _______ _______ _______ _____ _____    ______ ____
ROOT
ATOM      1  F   LIG    1       -1.790   6.125   0.230  0.00  0.00    -0.203 F 
ATOM      2  C   LIG    1       -0.982   5.116  -0.170  0.00  0.00    +0.149 A 
ATOM      3  C   LIG    1       -1.315   3.777   0.084  0.00  0.00    +0.133 A 
ATOM      4  S   LIG    1       -2.861   3.408   0.923  0.00  0.00    +0.004 S 
ATOM      5  O   LIG    1       -2.579   3.246   2.353  0.00  0.00    -0.169 OA
ATOM      6  O   LIG    1       -3.885   4.376   0.514  0.00  0.00    -0.169 OA
ATOM      7  C   LIG    1       -3.291   1.727   0.173  0.00  0.00    +0.211 C 
ATOM      8  C   LIG    1       -2.080   0.818   0.207  0.00  0.00    +0.032 A 
ATOM      9  C   LIG    1       -1.940  -0.574   0.413  0.00  0.00    +0.153 A 
ATOM     10  N   LIG    1       -0.668  -0.906   0.369  0.00  0.00    -0.161 NA
ATOM     11  N   LIG    1        0.027   0.222   0.173  0.00  0.00    -0.231 N 
ATOM     12  C   LIG    1       -0.794   1.319   0.004  0.00  0.00    +0.082 A 
ATOM     13  C   LIG    1       -0.433   2.747  -0.301  0.00  0.00    +0.028 A 
ATOM     14  C   LIG    1        0.735   3.088  -0.996  0.00  0.00    +0.012 A 
ATOM     15  C   LIG    1        1.053   4.417  -1.261  0.00  0.00    +0.004 A 
ATOM     16  C   LIG    1        0.199   5.431  -0.839  0.00  0.00    +0.040 A 
ENDROOT
BRANCH   9  17
ATOM     17  C   LIG    1       -3.049  -1.513   0.529  0.00  0.00    +0.267 C 
ATOM     18  N   LIG    1       -2.873  -2.688   1.208  0.00  0.00    -0.292 N 
ATOM     19  C   LIG    1       -3.997  -3.641   1.301  0.00  0.00    +0.136 C 
ATOM     20  C   LIG    1       -4.661  -3.412   2.680  0.00  0.00    +0.179 C 
ATOM     21  O   LIG    1       -3.700  -3.572   3.726  0.00  0.00    -0.377 OA
ATOM     22  C   LIG    1       -2.582  -2.691   3.614  0.00  0.00    +0.179 C 
ATOM     23  C   LIG    1       -1.864  -2.913   2.263  0.00  0.00    +0.136 C 
ATOM     24  O   LIG    1       -4.120  -1.226  -0.013  0.00  0.00    -0.268 OA
ENDBRANCH   9  17
BRANCH  11  25
ATOM     25  C   LIG    1        1.436   0.159   0.208  0.00  0.00    +0.066 A 
ATOM     26  C   LIG    1        2.118  -0.769  -0.587  0.00  0.00    +0.028 A 
ATOM     27  C   LIG    1        3.509  -0.820  -0.551  0.00  0.00    +0.007 A 
ATOM     28  C   LIG    1        4.219   0.048   0.283  0.00  0.00    -0.033 A 
ATOM     29  C   LIG    1        3.537   0.967   1.083  0.00  0.00    +0.007 A 
ATOM     30  C   LIG    1        2.146   1.022   1.049  0.00  0.00    +0.028 A 
BRANCH  28  31
ATOM     31  C   LIG    1        5.742  -0.003   0.315  0.00  0.00    +0.119 C 
BRANCH  31  32
ATOM     32  N   LIG    1        6.254  -1.231   0.930  0.00  0.00    -0.294 NA
ATOM     33  C   LIG    1        5.998  -1.274   2.378  0.00  0.00    +0.113 C 
ATOM     34  C   LIG    1        6.622  -2.529   3.026  0.00  0.00    +0.175 C 
ATOM     35  O   LIG    1        8.012  -2.595   2.724  0.00  0.00    -0.377 OA
ATOM     36  C   LIG    1        8.260  -2.654   1.324  0.00  0.00    +0.175 C 
ATOM     37  C   LIG    1        7.681  -1.402   0.630  0.00  0.00    +0.113 C 
ENDBRANCH  31  32
ENDBRANCH  28  31
ENDBRANCH  11  25
TORSDOF 4
