REMARK  Name = DB18152
REMARK                            x       y       z     vdW  Elec       q    Type
REMARK                         _______ _______ _______ _____ _____    ______ ____
ROOT
ATOM      1  C   LIG    1       -2.896   0.061  -0.999  0.00  0.00    +0.128 A 
ATOM      2  C   LIG    1       -2.162   1.156  -0.490  0.00  0.00    +0.077 A 
ATOM      3  C   LIG    1       -0.760   1.058  -0.525  0.00  0.00    +0.026 A 
ATOM      4  C   LIG    1       -0.122  -0.074  -1.045  0.00  0.00    +0.001 A 
ATOM      5  C   LIG    1       -0.943  -1.099  -1.527  0.00  0.00    +0.121 A 
ATOM      6  N   LIG    1       -2.296  -1.043  -1.508  0.00  0.00    -0.239 NA
ENDROOT
BRANCH   4   7
ATOM      7  C   LIG    1        1.363  -0.182  -1.082  0.00  0.00    -0.016 A 
ATOM      8  C   LIG    1        2.133   0.247   0.006  0.00  0.00    +0.009 A 
ATOM      9  C   LIG    1        3.521   0.154  -0.027  0.00  0.00    +0.005 A 
ATOM     10  C   LIG    1        4.156  -0.369  -1.154  0.00  0.00    -0.043 A 
ATOM     11  C   LIG    1        3.400  -0.805  -2.242  0.00  0.00    +0.005 A 
ATOM     12  C   LIG    1        2.012  -0.712  -2.204  0.00  0.00    +0.009 A 
BRANCH  10  13
ATOM     13  C   LIG    1        5.670  -0.477  -1.195  0.00  0.00    -0.018 C 
ATOM     14  C   LIG    1        6.315  -1.744  -0.598  0.00  0.00    -0.067 C 
ATOM     15  N   LIG    1        7.798  -1.412  -0.313  0.00  0.00    +0.382 N 
ATOM     16  H   LIG    1        8.316  -1.571  -1.166  0.00  0.00    -0.081 HD
ATOM     17  C   LIG    1        7.786   0.108  -0.047  0.00  0.00    -0.074 C 
ATOM     18  C   LIG    1        6.575   0.656  -0.813  0.00  0.00    -0.018 C 
ATOM     19  C   LIG    1        6.480   0.250  -2.268  0.00  0.00    +0.012 C 
BRANCH  15  20
ATOM     20  C   LIG    1        8.445  -2.262   0.810  0.00  0.00    -0.064 C 
ATOM     21  C   LIG    1        8.383  -3.762   0.429  0.00  0.00    +0.013 C 
ATOM     22  C   LIG    1        9.258  -4.629   1.355  0.00  0.00    +0.158 C 
ATOM     23  O   LIG    1       10.591  -4.121   1.386  0.00  0.00    -0.380 OA
ATOM     24  C   LIG    1       10.691  -2.801   1.916  0.00  0.00    +0.158 C 
ATOM     25  C   LIG    1        9.912  -1.814   1.026  0.00  0.00    +0.013 C 
ENDBRANCH  15  20
ENDBRANCH  10  13
ENDBRANCH   4   7
BRANCH   2  26
ATOM     26  C   LIG    1       -2.817   2.395   0.086  0.00  0.00    +0.248 C 
ATOM     27  N   LIG    1       -2.192   3.559  -0.186  0.00  0.00    -0.306 N 
ATOM     28  H   LIG    1       -1.363   3.512  -0.760  0.00  0.00    +0.150 HD
ATOM     29  O   LIG    1       -3.854   2.316   0.746  0.00  0.00    -0.270 OA
BRANCH  27  30
ATOM     30  C   LIG    1       -2.567   4.912   0.248  0.00  0.00    +0.035 C 
ATOM     31  C   LIG    1       -2.547   5.085   1.802  0.00  0.00    +0.028 C 
ATOM     32  C   LIG    1       -2.889   6.539   2.234  0.00  0.00    +0.037 C 
ATOM     33  C   LIG    1       -3.171   7.447   1.006  0.00  0.00    +0.066 C 
ATOM     34  C   LIG    1       -1.897   7.402   0.116  0.00  0.00    +0.037 C 
ATOM     35  C   LIG    1       -4.319   6.814   0.173  0.00  0.00    +0.037 C 
ATOM     36  C   LIG    1       -1.551   5.949  -0.318  0.00  0.00    +0.028 C 
ATOM     37  C   LIG    1       -3.976   5.360  -0.259  0.00  0.00    +0.028 C 
BRANCH  33  38
ATOM     38  O   LIG    1       -3.458   8.778   1.383  0.00  0.00    -0.389 OA
ATOM     39  H   LIG    1       -4.250   8.778   1.926  0.00  0.00    +0.210 HD
ENDBRANCH  33  38
ENDBRANCH  27  30
ENDBRANCH   2  26
BRANCH   1  40
ATOM     40  N   LIG    1       -4.293   0.034  -1.038  0.00  0.00    -0.343 N 
ATOM     41  H   LIG    1       -4.762  -0.778  -1.412  0.00  0.00    +0.144 HD
ATOM     42  H   LIG    1       -4.813   0.810  -0.653  0.00  0.00    +0.144 HD
ENDBRANCH   1  40
TORSDOF 7
