REMARK  Name = DB18146
REMARK                            x       y       z     vdW  Elec       q    Type
REMARK                         _______ _______ _______ _____ _____    ______ ____
ROOT
ATOM      1  C   LIG    1       -2.354   7.288   0.062  0.00  0.00    -0.033 C 
ATOM      2  N   LIG    1       -1.256   8.298  -0.377  0.00  0.00    +0.383 N 
ATOM      3  H   LIG    1       -0.371   7.902  -0.092  0.00  0.00    -0.081 HD
ATOM      4  C   LIG    1       -1.380   9.669   0.322  0.00  0.00    -0.095 C 
ATOM      5  C   LIG    1       -1.198   8.477  -1.910  0.00  0.00    -0.074 C 
ATOM      6  C   LIG    1       -0.848   7.132  -2.573  0.00  0.00    +0.017 C 
ATOM      7  C   LIG    1       -1.533   5.909  -1.961  0.00  0.00    -0.044 A 
ATOM      8  C   LIG    1       -1.509   4.691  -2.650  0.00  0.00    +0.053 A 
ATOM      9  C   LIG    1       -1.984   3.501  -2.077  0.00  0.00    +0.162 A 
ATOM     10  C   LIG    1       -2.459   3.542  -0.759  0.00  0.00    +0.170 A 
ATOM     11  C   LIG    1       -2.551   4.763  -0.097  0.00  0.00    +0.052 A 
ATOM     12  O   LIG    1       -2.876   2.417  -0.078  0.00  0.00    -0.448 OA
ATOM     13  C   LIG    1       -2.103   1.268   0.012  0.00  0.00    +0.176 A 
ATOM     14  C   LIG    1       -2.797   0.043   0.074  0.00  0.00    -0.011 A 
ATOM     15  C   LIG    1       -2.062  -1.161   0.142  0.00  0.00    -0.040 A 
ATOM     16  C   LIG    1       -0.666  -1.110   0.137  0.00  0.00    +0.053 A 
ATOM     17  C   LIG    1        0.031   0.102   0.114  0.00  0.00    +0.165 A 
ATOM     18  C   LIG    1       -2.749  -2.519   0.267  0.00  0.00    +0.017 C 
ATOM     19  C   LIG    1       -4.230  -2.509  -0.149  0.00  0.00    -0.074 C 
ATOM     20  N   LIG    1       -4.956  -1.302   0.481  0.00  0.00    +0.383 N 
ATOM     21  H   LIG    1       -5.908  -1.313   0.143  0.00  0.00    -0.081 HD
ATOM     22  C   LIG    1       -5.040  -1.430   2.019  0.00  0.00    -0.095 C 
ATOM     23  C   LIG    1       -4.340   0.055   0.050  0.00  0.00    -0.030 C 
ATOM     24  C   LIG    1       -4.952   0.439  -1.325  0.00  0.00    +0.024 C 
ATOM     25  C   LIG    1       -6.352   1.027  -1.201  0.00  0.00    -0.045 A 
ATOM     26  C   LIG    1       -7.471   0.353  -1.695  0.00  0.00    +0.007 A 
ATOM     27  C   LIG    1       -8.741   0.916  -1.560  0.00  0.00    +0.049 A 
ATOM     28  C   LIG    1       -8.900   2.156  -0.935  0.00  0.00    +0.159 A 
ATOM     29  C   LIG    1       -7.785   2.849  -0.446  0.00  0.00    +0.170 A 
ATOM     30  O   LIG    1       -7.961   4.066   0.187  0.00  0.00    -0.452 OA
ATOM     31  C   LIG    1       -6.986   5.036   0.096  0.00  0.00    +0.129 A 
ATOM     32  C   LIG    1       -6.469   5.587   1.269  0.00  0.00    +0.046 A 
ATOM     33  C   LIG    1       -5.441   6.525   1.205  0.00  0.00    +0.007 A 
ATOM     34  C   LIG    1       -4.934   6.918  -0.036  0.00  0.00    -0.048 A 
ATOM     35  C   LIG    1       -5.479   6.394  -1.212  0.00  0.00    +0.007 A 
ATOM     36  C   LIG    1       -6.505   5.460  -1.147  0.00  0.00    +0.046 A 
ATOM     37  C   LIG    1       -6.517   2.265  -0.578  0.00  0.00    +0.053 A 
ATOM     38  C   LIG    1       -0.696   1.293   0.078  0.00  0.00    +0.204 A 
ATOM     39  C   LIG    1       -2.124   5.961  -0.681  0.00  0.00    -0.054 A 
ATOM     40  C   LIG    1       -3.780   7.908  -0.123  0.00  0.00    +0.024 C 
ENDROOT
BRANCH   9  41
ATOM     41  O   LIG    1       -1.988   2.280  -2.726  0.00  0.00    -0.491 OA
ATOM     42  C   LIG    1       -1.501   2.193  -4.060  0.00  0.00    +0.277 C 
ENDBRANCH   9  41
BRANCH  17  43
ATOM     43  O   LIG    1        1.411   0.202   0.135  0.00  0.00    -0.491 OA
ATOM     44  C   LIG    1        2.200  -0.983   0.174  0.00  0.00    +0.277 C 
ENDBRANCH  17  43
BRANCH  28  45
ATOM     45  O   LIG    1      -10.159   2.686  -0.810  0.00  0.00    -0.503 OA
ATOM     46  H   LIG    1      -10.843   2.124  -1.180  0.00  0.00    +0.292 HD
ENDBRANCH  28  45
BRANCH  38  47
ATOM     47  O   LIG    1       -0.008   2.484   0.090  0.00  0.00    -0.488 OA
ATOM     48  C   LIG    1        0.256   2.988   1.392  0.00  0.00    +0.277 C 
ENDBRANCH  38  47
TORSDOF 4
