REMARK  Name = DB18054
REMARK                            x       y       z     vdW  Elec       q    Type
REMARK                         _______ _______ _______ _____ _____    ______ ____
ROOT
ATOM      1  C   LIG    1        2.838  -0.608   2.072  0.00  0.00    +0.080 A 
ATOM      2  C   LIG    1        2.501   0.725   1.788  0.00  0.00    +0.142 A 
ATOM      3  C   LIG    1        3.492   1.603   1.326  0.00  0.00    +0.070 A 
ATOM      4  C   LIG    1        4.822   1.191   1.140  0.00  0.00    +0.033 A 
ATOM      5  C   LIG    1        5.148  -0.120   1.521  0.00  0.00    +0.024 A 
ATOM      6  C   LIG    1        4.175  -1.007   1.970  0.00  0.00    +0.018 A 
ENDROOT
BRANCH   4   7
ATOM      7  N   LIG    1        5.803   2.053   0.630  0.00  0.00    -0.333 N 
ATOM      8  C   LIG    1        5.466   3.382   0.077  0.00  0.00    +0.086 C 
ATOM      9  C   LIG    1        4.878   3.301  -1.354  0.00  0.00    -0.059 C 
ATOM     10  N   LIG    1        5.895   2.616  -2.296  0.00  0.00    +0.384 N 
ATOM     11  H   LIG    1        6.718   3.199  -2.361  0.00  0.00    -0.081 HD
ATOM     12  C   LIG    1        6.319   1.263  -1.681  0.00  0.00    -0.059 C 
ATOM     13  C   LIG    1        6.854   1.511  -0.253  0.00  0.00    +0.086 C 
BRANCH  10  14
ATOM     14  C   LIG    1        5.273   2.433  -3.702  0.00  0.00    -0.047 C 
BRANCH  14  15
ATOM     15  C   LIG    1        6.171   1.695  -4.700  0.00  0.00    -0.082 C 
ATOM     16  C   LIG    1        7.440   2.460  -5.097  0.00  0.00    +0.029 C 
ATOM     17  C   LIG    1        8.224   1.810  -6.256  0.00  0.00    +0.011 C 
ATOM     18  C   LIG    1        8.249   0.267  -6.158  0.00  0.00    -0.025 C 
ATOM     19  C   LIG    1        9.159  -0.294  -5.045  0.00  0.00    +0.007 C 
ATOM     20  C   LIG    1       10.269  -0.464  -6.092  0.00  0.00    +0.001 C 
ATOM     21  C   LIG    1        9.185  -0.409  -7.179  0.00  0.00    +0.007 C 
ATOM     22  C   LIG    1        6.802  -0.273  -6.162  0.00  0.00    +0.042 C 
ATOM     23  C   LIG    1        5.947   0.407  -5.093  0.00  0.00    -0.042 C 
BRANCH  23  24
ATOM     24  C   LIG    1        4.677  -0.279  -4.771  0.00  0.00    -0.022 A 
ATOM     25  C   LIG    1        4.687  -1.389  -3.921  0.00  0.00    +0.009 A 
ATOM     26  C   LIG    1        3.500  -2.053  -3.622  0.00  0.00    +0.020 A 
ATOM     27  C   LIG    1        2.303  -1.619  -4.190  0.00  0.00    +0.041 A 
ATOM     28 CL   LIG    1        0.831  -2.445  -3.832  0.00  0.00    -0.084 Cl
ATOM     29  C   LIG    1        2.287  -0.525  -5.053  0.00  0.00    +0.020 A 
ATOM     30  C   LIG    1        3.473   0.141  -5.347  0.00  0.00    +0.009 A 
ENDBRANCH  23  24
ENDBRANCH  14  15
ENDBRANCH  10  14
ENDBRANCH   4   7
BRANCH   1  33
ATOM     31  N   LIG    1        1.598  -2.698   1.795  0.00  0.00    -0.181 N 
ATOM     32  H   LIG    1        1.216  -3.488   2.241  0.00  0.00    +0.177 HD
ATOM     33  C   LIG    1        1.781  -1.603   2.503  0.00  0.00    +0.267 C 
ATOM     34  O   LIG    1        1.206  -1.384   3.567  0.00  0.00    -0.268 OA
BRANCH  31  35
ATOM     35  S   LIG    1        1.964  -2.799   0.263  0.00  0.00    +0.075 S 
ATOM     36  O   LIG    1        1.493  -1.669  -0.548  0.00  0.00    -0.150 OA
ATOM     37  O   LIG    1        3.330  -3.279   0.023  0.00  0.00    -0.150 OA
BRANCH  35  42
ATOM     38  C   LIG    1        0.511  -5.928  -1.936  0.00  0.00    +0.144 A 
ATOM     39  C   LIG    1       -0.689  -6.271  -1.258  0.00  0.00    +0.058 A 
ATOM     40  C   LIG    1       -1.063  -5.536  -0.120  0.00  0.00    +0.027 A 
ATOM     41  C   LIG    1       -0.281  -4.492   0.359  0.00  0.00    +0.031 A 
ATOM     42  C   LIG    1        0.915  -4.165  -0.279  0.00  0.00    +0.111 A 
ATOM     43  C   LIG    1        1.290  -4.878  -1.417  0.00  0.00    +0.063 A 
BRANCH  38  44
ATOM     44  N   LIG    1        0.995  -6.614  -3.175  0.00  0.00    +0.008 N 
ATOM     45  O   LIG    1        2.042  -6.226  -3.686  0.00  0.00    -0.130 OA
BRANCH  44  46
ATOM     46  O   LIG    1        0.354  -7.538  -3.666  0.00  0.00    -0.396 OA
ATOM     47  H   LIG    1        0.664  -7.963  -4.442  0.00  0.00    +0.329 HD
ENDBRANCH  44  46
ENDBRANCH  38  44
BRANCH  39  48
ATOM     48  N   LIG    1       -1.508  -7.322  -1.721  0.00  0.00    -0.340 N 
ATOM     49  H   LIG    1       -1.269  -7.739  -2.610  0.00  0.00    +0.146 HD
BRANCH  48  50
ATOM     50  C   LIG    1       -2.765  -7.737  -1.103  0.00  0.00    +0.135 C 
BRANCH  50  51
ATOM     51  C   LIG    1       -4.000  -6.985  -1.634  0.00  0.00    +0.161 C 
ATOM     52  O   LIG    1       -5.148  -7.452  -0.925  0.00  0.00    -0.370 OA
ATOM     53  C   LIG    1       -6.346  -6.767  -1.288  0.00  0.00    +0.188 C 
ATOM     54  C   LIG    1       -6.590  -6.935  -2.804  0.00  0.00    +0.188 C 
ATOM     55  O   LIG    1       -5.431  -6.515  -3.522  0.00  0.00    -0.375 OA
ATOM     56  C   LIG    1       -4.257  -7.229  -3.142  0.00  0.00    +0.193 C 
ENDBRANCH  50  51
ENDBRANCH  48  50
ENDBRANCH  39  48
ENDBRANCH  35  42
ENDBRANCH  31  35
ENDBRANCH   1  33
BRANCH   2  57
ATOM     57  O   LIG    1        1.187   1.139   1.883  0.00  0.00    -0.454 OA
BRANCH  57  58
ATOM     58  C   LIG    1        0.856   2.326   2.500  0.00  0.00    +0.147 A 
ATOM     59  C   LIG    1        1.536   2.814   3.627  0.00  0.00    +0.059 A 
ATOM     60  C   LIG    1        1.105   4.026   4.191  0.00  0.00    +0.022 A 
ATOM     61  C   LIG    1        1.506   4.851   5.293  0.00  0.00    +0.029 A 
ATOM     62  C   LIG    1        0.650   5.937   5.314  0.00  0.00    +0.085 A 
ATOM     63  N   LIG    1       -0.257   5.826   4.288  0.00  0.00    -0.346 N 
ATOM     64  H   LIG    1       -0.979   6.512   4.119  0.00  0.00    +0.167 HD
ATOM     65  C   LIG    1       -0.010   4.669   3.581  0.00  0.00    +0.138 A 
ATOM     66  N   LIG    1       -0.688   4.223   2.519  0.00  0.00    -0.234 NA
ATOM     67  C   LIG    1       -0.234   3.049   2.007  0.00  0.00    +0.159 A 
ENDBRANCH  57  58
ENDBRANCH   2  57
TORSDOF 14
