REMARK  Name = DB18464
REMARK                            x       y       z     vdW  Elec       q    Type
REMARK                         _______ _______ _______ _____ _____    ______ ____
ROOT
ATOM      1  C   LIG    1       -4.093   2.989   0.234  0.00  0.00    +0.184 C 
ATOM      2  O   LIG    1       -5.134   2.720  -0.708  0.00  0.00    -0.488 OA
ATOM      3  C   LIG    1       -4.545   2.459  -1.919  0.00  0.00    +0.128 A 
ATOM      4  C   LIG    1       -5.242   2.244  -3.111  0.00  0.00    -0.005 A 
ATOM      5  C   LIG    1       -4.494   1.977  -4.266  0.00  0.00    +0.007 A 
ATOM      6  C   LIG    1       -3.097   1.919  -4.213  0.00  0.00    +0.001 A 
ATOM      7  C   LIG    1       -2.427   2.126  -3.004  0.00  0.00    +0.007 A 
ATOM      8  C   LIG    1       -3.164   2.404  -1.853  0.00  0.00    +0.002 A 
ATOM      9  C   LIG    1       -2.753   2.621  -0.431  0.00  0.00    +0.073 C 
ATOM     10  C   LIG    1       -2.209   1.423   0.371  0.00  0.00    +0.051 C 
ATOM     11  C   LIG    1       -2.804   1.584   1.776  0.00  0.00    +0.126 C 
ATOM     12  C   LIG    1       -4.198   2.176   1.535  0.00  0.00    +0.077 C 
ENDROOT
BRANCH  10  13
ATOM     13  C   LIG    1       -0.691   1.333   0.353  0.00  0.00    -0.022 C 
ATOM     14  C   LIG    1        0.007   0.277  -0.110  0.00  0.00    +0.000 C 
BRANCH  14  15
ATOM     15  C   LIG    1        1.527   0.113  -0.156  0.00  0.00    +0.141 C 
BRANCH  15  16
ATOM     16  C   LIG    1        2.035  -1.174   0.553  0.00  0.00    +0.030 C 
ATOM     17  C   LIG    1        3.523  -1.446   0.226  0.00  0.00    +0.011 C 
BRANCH  16  18
ATOM     18  C   LIG    1        1.747  -1.171   2.082  0.00  0.00    +0.095 C 
BRANCH  18  19
ATOM     19  C   LIG    1        1.996  -2.444   2.785  0.00  0.00    -0.102 C 
ATOM     20  C   LIG    1        2.216  -3.495   3.366  0.00  0.00    -0.106 C 
ATOM     21  C   LIG    1        2.495  -4.761   4.059  0.00  0.00    +0.106 C 
ENDBRANCH  18  19
ENDBRANCH  16  18
ENDBRANCH  15  16
BRANCH  15  22
ATOM     22  O   LIG    1        2.176   1.265   0.360  0.00  0.00    -0.387 OA
ATOM     23  H   LIG    1        1.913   2.023  -0.167  0.00  0.00    +0.210 HD
ENDBRANCH  15  22
ENDBRANCH  14  15
ENDBRANCH  10  13
BRANCH  11  24
ATOM     24  O   LIG    1       -2.803   0.425   2.584  0.00  0.00    -0.391 OA
ATOM     25  H   LIG    1       -1.905   0.264   2.883  0.00  0.00    +0.210 HD
ENDBRANCH  11  24
BRANCH   4  26
ATOM     26  C   LIG    1       -6.763   2.293  -3.180  0.00  0.00    +0.039 C 
BRANCH  26  27
ATOM     27  C   LIG    1       -7.450   1.047  -2.585  0.00  0.00    +0.016 C 
BRANCH  27  28
ATOM     28  C   LIG    1       -7.149  -0.260  -3.368  0.00  0.00    +0.121 C 
BRANCH  28  29
ATOM     29  C   LIG    1       -7.932  -1.508  -2.890  0.00  0.00    +0.305 C 
ATOM     30  O   LIG    1       -7.854  -2.519  -3.623  0.00  0.00    -0.251 OA
BRANCH  29  31
ATOM     31  O   LIG    1       -8.579  -1.471  -1.817  0.00  0.00    -0.481 OA
ATOM     32  H   LIG    1       -9.052  -2.226  -1.530  0.00  0.00    +0.295 HD
ENDBRANCH  29  31
ENDBRANCH  28  29
ENDBRANCH  27  28
ENDBRANCH  26  27
ENDBRANCH   4  26
TORSDOF 12
