REMARK  Name = DB18174
REMARK                            x       y       z     vdW  Elec       q    Type
REMARK                         _______ _______ _______ _____ _____    ______ ____
ROOT
ATOM      1  C   LIG    1        1.472   0.189  -0.076  0.00  0.00    +0.121 A 
ATOM      2  C   LIG    1        2.275   1.319   0.145  0.00  0.00    +0.054 A 
ATOM      3  C   LIG    1        3.663   1.202   0.278  0.00  0.00    -0.003 A 
ATOM      4  C   LIG    1        4.259  -0.069   0.219  0.00  0.00    -0.003 A 
ATOM      5  C   LIG    1        5.653  -0.539   0.420  0.00  0.00    -0.010 A 
ATOM      6  C   LIG    1        5.690  -1.921   0.219  0.00  0.00    +0.005 A 
ATOM      7  C   LIG    1        4.317  -2.447  -0.151  0.00  0.00    +0.213 C 
ATOM      8  C   LIG    1        6.890  -2.622   0.379  0.00  0.00    +0.008 A 
ATOM      9  C   LIG    1        8.054  -1.943   0.736  0.00  0.00    +0.000 A 
ATOM     10  C   LIG    1        8.019  -0.566   0.946  0.00  0.00    +0.001 A 
ATOM     11  C   LIG    1        6.822   0.135   0.796  0.00  0.00    +0.009 A 
ATOM     12  C   LIG    1        3.469  -1.191  -0.047  0.00  0.00    +0.009 A 
ATOM     13  C   LIG    1        2.085  -1.058  -0.179  0.00  0.00    +0.053 A 
ENDROOT
BRANCH   3  14
ATOM     14  C   LIG    1        4.436   2.460   0.457  0.00  0.00    +0.020 A 
ATOM     15  C   LIG    1        5.480   2.939  -0.317  0.00  0.00    +0.118 A 
ATOM     16  N   LIG    1        5.870   4.142   0.229  0.00  0.00    -0.256 N 
ATOM     17  N   LIG    1        5.122   4.444   1.308  0.00  0.00    -0.178 NA
ATOM     18  C   LIG    1        4.261   3.460   1.421  0.00  0.00    +0.143 A 
BRANCH  16  19
ATOM     19  C   LIG    1        6.997   5.035  -0.170  0.00  0.00    +0.133 C 
ATOM     20  C   LIG    1        6.441   6.485  -0.290  0.00  0.00    +0.046 C 
ATOM     21  C   LIG    1        7.547   4.613  -1.562  0.00  0.00    +0.046 C 
BRANCH  19  22
ATOM     22  C   LIG    1        8.183   5.008   0.842  0.00  0.00    +0.238 C 
ATOM     23  O   LIG    1        9.039   5.892   0.826  0.00  0.00    -0.273 OA
ATOM     24  N   LIG    1        8.324   3.951   1.652  0.00  0.00    -0.327 N 
ATOM     25  H   LIG    1        9.111   3.900   2.282  0.00  0.00    +0.145 HD
ATOM     26  H   LIG    1        7.638   3.210   1.651  0.00  0.00    +0.145 HD
ENDBRANCH  19  22
ENDBRANCH  16  19
ENDBRANCH   3  14
BRANCH   7  27
ATOM     27  C   LIG    1        4.276  -3.092  -1.569  0.00  0.00    +0.427 C 
ATOM     28  F   LIG    1        3.048  -3.496  -1.904  0.00  0.00    -0.167 F 
ATOM     29  F   LIG    1        5.069  -4.162  -1.660  0.00  0.00    -0.167 F 
ATOM     30  F   LIG    1        4.672  -2.233  -2.511  0.00  0.00    -0.167 F 
ENDBRANCH   7  27
BRANCH   7  31
ATOM     31  O   LIG    1        3.879  -3.457   0.745  0.00  0.00    -0.372 OA
ATOM     32  H   LIG    1        3.895  -3.097   1.635  0.00  0.00    +0.211 HD
ENDBRANCH   7  31
BRANCH   1  33
ATOM     33  O   LIG    1        0.097   0.218  -0.214  0.00  0.00    -0.492 OA
BRANCH  33  34
ATOM     34  C   LIG    1       -0.590   1.462  -0.116  0.00  0.00    +0.232 C 
BRANCH  34  35
ATOM     35  C   LIG    1       -2.099   1.200  -0.292  0.00  0.00    +0.075 C 
BRANCH  35  37
ATOM     36  C   LIG    1       -4.516   2.023  -0.266  0.00  0.00    +0.041 C 
ATOM     37  C   LIG    1       -3.034   2.434  -0.169  0.00  0.00    +0.064 C 
ATOM     38  C   LIG    1       -2.691   3.537  -1.192  0.00  0.00    +0.041 C 
BRANCH  37  39
ATOM     39  O   LIG    1       -2.841   3.018   1.107  0.00  0.00    -0.389 OA
ATOM     40  H   LIG    1       -3.067   2.369   1.777  0.00  0.00    +0.210 HD
ENDBRANCH  37  39
ENDBRANCH  35  37
ENDBRANCH  34  35
ENDBRANCH  33  34
ENDBRANCH   1  33
TORSDOF 10
