REMARK  Name = DB18080
REMARK                            x       y       z     vdW  Elec       q    Type
REMARK                         _______ _______ _______ _____ _____    ______ ____
ROOT
ATOM      1  C   LIG    1       -2.129   1.223  -0.049  0.00  0.00    +0.240 A 
ATOM      2  N   LIG    1       -0.820   1.238  -0.417  0.00  0.00    -0.194 NA
ATOM      3  C   LIG    1       -0.136   0.066  -0.343  0.00  0.00    +0.166 A 
ATOM      4  C   LIG    1       -0.760  -1.111   0.098  0.00  0.00    +0.203 A 
ATOM      5  F   LIG    1       -0.082  -2.284   0.176  0.00  0.00    -0.198 F 
ATOM      6  C   LIG    1       -2.112  -1.031   0.459  0.00  0.00    +0.159 A 
ATOM      7  N   LIG    1       -2.809   0.131   0.391  0.00  0.00    -0.194 NA
ENDROOT
BRANCH   1  10
ATOM      8  C   LIG    1       -1.045   3.998   0.869  0.00  0.00    +0.086 C 
ATOM      9  C   LIG    1       -2.405   3.708   0.263  0.00  0.00    +0.114 A 
ATOM     10  N   LIG    1       -2.842   2.443  -0.118  0.00  0.00    -0.264 N 
ATOM     11  C   LIG    1       -4.138   2.623  -0.588  0.00  0.00    +0.079 A 
ATOM     12  C   LIG    1       -5.107   1.758  -1.116  0.00  0.00    +0.066 A 
ATOM     13  C   LIG    1       -6.326   2.325  -1.495  0.00  0.00    +0.125 A 
ATOM     14  F   LIG    1       -7.291   1.528  -2.007  0.00  0.00    -0.205 F 
ATOM     15  C   LIG    1       -6.575   3.691  -1.360  0.00  0.00    +0.040 A 
ATOM     16  C   LIG    1       -5.612   4.555  -0.840  0.00  0.00    +0.033 A 
ATOM     17  C   LIG    1       -4.379   4.014  -0.450  0.00  0.00    +0.090 A 
ATOM     18  N   LIG    1       -3.293   4.652   0.076  0.00  0.00    -0.232 NA
ENDBRANCH   1  10
BRANCH   6  19
ATOM     19  N   LIG    1       -2.800  -2.158   0.906  0.00  0.00    -0.341 N 
ATOM     20  H   LIG    1       -3.774  -2.075   1.159  0.00  0.00    +0.144 HD
ATOM     21  H   LIG    1       -2.318  -3.044   0.966  0.00  0.00    +0.144 HD
ENDBRANCH   6  19
BRANCH   3  22
ATOM     22  N   LIG    1        1.222   0.012  -0.707  0.00  0.00    -0.297 N 
ATOM     23  H   LIG    1        1.645  -0.883  -0.504  0.00  0.00    +0.154 HD
BRANCH  22  24
ATOM     24  C   LIG    1        2.123   0.924  -1.290  0.00  0.00    +0.032 A 
ATOM     25  C   LIG    1        3.457   0.522  -1.375  0.00  0.00    +0.024 A 
ATOM     26  C   LIG    1        4.416   1.361  -1.935  0.00  0.00    +0.014 A 
ATOM     27  C   LIG    1        4.051   2.618  -2.424  0.00  0.00    +0.055 A 
ATOM     28  C   LIG    1        2.715   3.021  -2.349  0.00  0.00    +0.014 A 
ATOM     29  C   LIG    1        1.756   2.181  -1.788  0.00  0.00    +0.024 A 
BRANCH  27  30
ATOM     30  C   LIG    1        5.099   3.542  -3.043  0.00  0.00    +0.417 C 
ATOM     31  F   LIG    1        4.572   4.297  -4.009  0.00  0.00    -0.166 F 
ATOM     32  F   LIG    1        6.113   2.853  -3.570  0.00  0.00    -0.166 F 
ATOM     33  F   LIG    1        5.582   4.345  -2.095  0.00  0.00    -0.166 F 
ENDBRANCH  27  30
ENDBRANCH  22  24
ENDBRANCH   3  22
TORSDOF 5
