REMARK  Name = DB18009
REMARK                            x       y       z     vdW  Elec       q    Type
REMARK                         _______ _______ _______ _____ _____    ______ ____
ROOT
ATOM      1  C   LIG    1        1.547  -0.110   0.000  0.00  0.00    +0.051 C 
ATOM      2  C   LIG    1        2.282   1.021   0.000  0.00  0.00    +0.004 C 
ENDROOT
BRANCH   1   3
ATOM      3  C   LIG    1        0.083  -0.111   0.000  0.00  0.00    +0.179 C 
ATOM      4  O   LIG    1       -0.572   0.935   0.000  0.00  0.00    -0.288 OA
BRANCH   3   6
ATOM      5  C   LIG    1       -1.896  -1.595   0.000  0.00  0.00    +0.012 C 
ATOM      6  C   LIG    1       -0.554  -1.429  -0.000  0.00  0.00    +0.051 C 
BRANCH   5   9
ATOM      7  C   LIG    1       -2.714  -5.322   0.000  0.00  0.00    +0.124 A 
ATOM      8  C   LIG    1       -1.982  -4.124   0.000  0.00  0.00    +0.053 A 
ATOM      9  C   LIG    1       -2.630  -2.881   0.000  0.00  0.00    -0.018 A 
ATOM     10  C   LIG    1       -4.028  -2.852   0.000  0.00  0.00    +0.053 A 
ATOM     11  C   LIG    1       -4.781  -4.037   0.000  0.00  0.00    +0.124 A 
ATOM     12  C   LIG    1       -4.107  -5.258   0.000  0.00  0.00    +0.091 A 
BRANCH   7  14
ATOM     13  C   LIG    1       -0.736  -6.716   0.000  0.00  0.00    +0.277 C 
ATOM     14  O   LIG    1       -2.153  -6.585   0.000  0.00  0.00    -0.495 OA
ENDBRANCH   7  14
BRANCH  11  15
ATOM     15  O   LIG    1       -6.162  -4.089   0.000  0.00  0.00    -0.495 OA
ATOM     16  C   LIG    1       -6.904  -2.874   0.000  0.00  0.00    +0.277 C 
ENDBRANCH  11  15
ENDBRANCH   5   9
ENDBRANCH   3   6
ENDBRANCH   1   3
BRANCH   2  17
ATOM     17  C   LIG    1        3.732   1.012   0.000  0.00  0.00    +0.001 C 
ATOM     18  C   LIG    1        4.470   2.140   0.000  0.00  0.00    +0.008 C 
BRANCH  18  19
ATOM     19  C   LIG    1        5.947   2.243   0.000  0.00  0.00    -0.018 A 
ATOM     20  C   LIG    1        6.786   1.123   0.000  0.00  0.00    +0.057 A 
ATOM     21  C   LIG    1        8.184   1.258   0.000  0.00  0.00    +0.166 A 
ATOM     22  C   LIG    1        8.736   2.546   0.000  0.00  0.00    +0.201 A 
ATOM     23  C   LIG    1        7.920   3.685   0.000  0.00  0.00    +0.166 A 
ATOM     24  C   LIG    1        6.526   3.515   0.000  0.00  0.00    +0.057 A 
BRANCH  21  25
ATOM     25  O   LIG    1        9.062   0.187   0.000  0.00  0.00    -0.491 OA
ATOM     26  C   LIG    1        8.550  -1.141   0.000  0.00  0.00    +0.277 C 
ENDBRANCH  21  25
BRANCH  22  27
ATOM     27  O   LIG    1       10.102   2.691   0.000  0.00  0.00    -0.501 OA
ATOM     28  H   LIG    1       10.562   1.848   0.000  0.00  0.00    +0.292 HD
ENDBRANCH  22  27
BRANCH  23  29
ATOM     29  O   LIG    1        8.544   4.921   0.000  0.00  0.00    -0.491 OA
ATOM     30  C   LIG    1        7.754   6.106  -0.000  0.00  0.00    +0.277 C 
ENDBRANCH  23  29
ENDBRANCH  18  19
ENDBRANCH   2  17
TORSDOF 10
