REMARK  Name = DB18345
REMARK                            x       y       z     vdW  Elec       q    Type
REMARK                         _______ _______ _______ _____ _____    ______ ____
ROOT
ATOM      1  C   LIG    1        1.349   0.243  -0.493  0.00  0.00    +0.234 C 
ATOM      2  N   LIG    1        1.885   1.269   0.188  0.00  0.00    -0.302 N 
ATOM      3  H   LIG    1        1.277   1.918   0.666  0.00  0.00    +0.150 HD
ATOM      4  O   LIG    1        2.003  -0.606  -1.101  0.00  0.00    -0.274 OA
ENDROOT
BRANCH   1   5
ATOM      5  C   LIG    1       -0.184   0.152  -0.459  0.00  0.00    +0.159 C 
BRANCH   5   7
ATOM      6  C   LIG    1       -1.903  -0.136  -2.224  0.00  0.00    +0.236 C 
ATOM      7  N   LIG    1       -0.683  -0.385  -1.724  0.00  0.00    -0.302 N 
ATOM      8  H   LIG    1       -0.058  -1.010  -2.213  0.00  0.00    +0.150 HD
ATOM      9  O   LIG    1       -2.723   0.623  -1.706  0.00  0.00    -0.274 OA
BRANCH   6  10
ATOM     10  CA  LIG    1       -2.251  -0.867  -3.535  0.00  0.00    +0.184 C 
BRANCH  10  12
ATOM     11  C   LIG    1       -4.222  -2.217  -2.818  0.00  0.00    +0.234 C 
ATOM     12  N   LIG    1       -3.654  -1.281  -3.597  0.00  0.00    -0.301 N 
ATOM     13  H   LIG    1       -4.222  -0.794  -4.276  0.00  0.00    +0.150 HD
ATOM     14  O   LIG    1       -3.626  -2.862  -1.954  0.00  0.00    -0.274 OA
BRANCH  11  15
ATOM     15  CA  LIG    1       -5.729  -2.457  -3.045  0.00  0.00    +0.161 C 
BRANCH  15  16
ATOM     16  N   LIG    1       -6.021  -3.887  -3.177  0.00  0.00    -0.304 N 
ATOM     17  H   LIG    1       -6.492  -4.310  -2.391  0.00  0.00    +0.149 HD
ATOM     18  C   LIG    1       -5.686  -4.652  -4.230  0.00  0.00    +0.211 C 
ATOM     19  O   LIG    1       -5.113  -4.223  -5.231  0.00  0.00    -0.276 OA
ATOM     20  C   LIG    1       -6.057  -6.129  -4.146  0.00  0.00    +0.109 C 
ENDBRANCH  15  16
BRANCH  15  22
ATOM     21  CG1 LIG    1       -8.049  -1.887  -2.149  0.00  0.00    +0.009 C 
ATOM     22  CB  LIG    1       -6.537  -1.835  -1.865  0.00  0.00    +0.012 C 
ATOM     23  CG2 LIG    1       -6.139  -0.392  -1.486  0.00  0.00    +0.009 C 
ENDBRANCH  15  22
ENDBRANCH  11  15
ENDBRANCH  10  12
BRANCH  10  24
ATOM     24  C   LIG    1       -1.924  -0.029  -4.790  0.00  0.00    +0.187 C 
BRANCH  24  25
ATOM     25  O   LIG    1       -2.558   1.236  -4.783  0.00  0.00    -0.393 OA
ATOM     26  H   LIG    1       -2.193   1.759  -4.065  0.00  0.00    +0.209 HD
ENDBRANCH  24  25
ENDBRANCH  10  24
ENDBRANCH   6  10
ENDBRANCH   5   7
BRANCH   5  27
ATOM     27  C   LIG    1       -0.717  -0.721   0.704  0.00  0.00    +0.033 C 
BRANCH  27  28
ATOM     28  C   LIG    1       -0.304  -0.258   2.119  0.00  0.00    +0.017 C 
BRANCH  28  29
ATOM     29  C   LIG    1       -0.969  -1.056   3.257  0.00  0.00    +0.084 C 
BRANCH  29  30
ATOM     30  N   LIG    1       -2.410  -0.767   3.389  0.00  0.00    -0.283 NA
ATOM     31  H   LIG    1       -2.777  -0.085   2.740  0.00  0.00    +0.125 HD
BRANCH  30  32
ATOM     32  C   LIG    1       -3.274  -1.320   4.264  0.00  0.00    +0.167 C 
BRANCH  32  33
ATOM     33  N   LIG    1       -4.558  -0.938   4.229  0.00  0.00    -0.297 NA
ATOM     34  H   LIG    1       -4.865  -0.250   3.555  0.00  0.00    +0.121 HD
ATOM     35  H   LIG    1       -5.227  -1.339   4.871  0.00  0.00    +0.121 HD
ENDBRANCH  32  33
BRANCH  32  36
ATOM     36  N   LIG    1       -2.894  -2.238   5.169  0.00  0.00    -0.297 NA
ATOM     37  H   LIG    1       -1.931  -2.540   5.209  0.00  0.00    +0.121 HD
ATOM     38  H   LIG    1       -3.569  -2.633   5.810  0.00  0.00    +0.121 HD
ENDBRANCH  32  36
ENDBRANCH  30  32
ENDBRANCH  29  30
ENDBRANCH  28  29
ENDBRANCH  27  28
ENDBRANCH   5  27
ENDBRANCH   1   5
BRANCH   2  39
ATOM     39  C   LIG    1        3.316   1.523   0.330  0.00  0.00    +0.159 C 
BRANCH  39  40
ATOM     40  C   LIG    1        3.580   2.168   1.699  0.00  0.00    +0.234 C 
ATOM     41  N   LIG    1        4.684   1.753   2.340  0.00  0.00    -0.302 N 
ATOM     42  H   LIG    1        5.269   1.046   1.917  0.00  0.00    +0.150 HD
ATOM     43  O   LIG    1        2.811   3.029   2.127  0.00  0.00    -0.274 OA
BRANCH  41  44
ATOM     44  C   LIG    1        5.143   2.261   3.634  0.00  0.00    +0.159 C 
BRANCH  44  45
ATOM     45  C   LIG    1        6.666   2.060   3.770  0.00  0.00    +0.231 C 
ATOM     46  O   LIG    1        7.192   1.010   3.403  0.00  0.00    -0.274 OA
ATOM     47  N   LIG    1        7.358   3.060   4.325  0.00  0.00    -0.328 N 
ATOM     48  H   LIG    1        8.356   2.974   4.450  0.00  0.00    +0.145 HD
ATOM     49  H   LIG    1        6.891   3.904   4.622  0.00  0.00    +0.145 HD
ENDBRANCH  44  45
BRANCH  44  50
ATOM     50  C   LIG    1        4.336   1.577   4.767  0.00  0.00    +0.033 C 
BRANCH  50  51
ATOM     51  C   LIG    1        4.710   2.025   6.192  0.00  0.00    +0.017 C 
BRANCH  51  52
ATOM     52  C   LIG    1        3.749   1.468   7.254  0.00  0.00    +0.084 C 
BRANCH  52  53
ATOM     53  N   LIG    1        4.219   1.747   8.622  0.00  0.00    -0.283 NA
ATOM     54  H   LIG    1        5.112   2.214   8.688  0.00  0.00    +0.125 HD
BRANCH  53  55
ATOM     55  C   LIG    1        3.587   1.445   9.774  0.00  0.00    +0.167 C 
BRANCH  55  56
ATOM     56  N   LIG    1        2.396   0.823   9.801  0.00  0.00    -0.297 NA
ATOM     57  H   LIG    1        1.942   0.565   8.937  0.00  0.00    +0.121 HD
ATOM     58  H   LIG    1        1.951   0.613  10.683  0.00  0.00    +0.121 HD
ENDBRANCH  55  56
BRANCH  55  59
ATOM     59  N   LIG    1        4.168   1.776  10.935  0.00  0.00    -0.297 NA
ATOM     60  H   LIG    1        5.065   2.242  10.939  0.00  0.00    +0.121 HD
ATOM     61  H   LIG    1        3.714   1.561  11.812  0.00  0.00    +0.121 HD
ENDBRANCH  55  59
ENDBRANCH  53  55
ENDBRANCH  52  53
ENDBRANCH  51  52
ENDBRANCH  50  51
ENDBRANCH  44  50
ENDBRANCH  41  44
ENDBRANCH  39  40
BRANCH  39  62
ATOM     62  C   LIG    1        3.800   2.397  -0.851  0.00  0.00    +0.033 C 
BRANCH  62  63
ATOM     63  C   LIG    1        5.309   2.724  -0.843  0.00  0.00    +0.017 C 
BRANCH  63  64
ATOM     64  C   LIG    1        5.773   3.578  -2.039  0.00  0.00    +0.084 C 
BRANCH  64  65
ATOM     65  N   LIG    1        5.291   4.971  -1.972  0.00  0.00    -0.283 NA
ATOM     66  H   LIG    1        4.404   5.144  -2.423  0.00  0.00    +0.125 HD
BRANCH  65  67
ATOM     67  C   LIG    1        5.876   6.005  -1.335  0.00  0.00    +0.167 C 
BRANCH  67  68
ATOM     68  N   LIG    1        5.274   7.202  -1.361  0.00  0.00    -0.297 NA
ATOM     69  H   LIG    1        4.398   7.319  -1.851  0.00  0.00    +0.121 HD
ATOM     70  H   LIG    1        5.692   7.992  -0.891  0.00  0.00    +0.121 HD
ENDBRANCH  67  68
BRANCH  67  71
ATOM     71  N   LIG    1        7.040   5.881  -0.673  0.00  0.00    -0.297 NA
ATOM     72  H   LIG    1        7.510   4.988  -0.642  0.00  0.00    +0.121 HD
ATOM     73  H   LIG    1        7.450   6.680  -0.210  0.00  0.00    +0.121 HD
ENDBRANCH  67  71
ENDBRANCH  65  67
ENDBRANCH  64  65
ENDBRANCH  63  64
ENDBRANCH  62  63
ENDBRANCH  39  62
ENDBRANCH   2  39
TORSDOF 34
