REMARK  Name = DB18481
REMARK                            x       y       z     vdW  Elec       q    Type
REMARK                         _______ _______ _______ _____ _____    ______ ____
ROOT
ATOM      1  C   LIG    1       -5.281   2.384   0.143  0.00  0.00    +0.001 C 
ATOM      2  C   LIG    1       -3.856   2.806   0.567  0.00  0.00    +0.017 C 
ATOM      3  C   LIG    1       -2.779   1.790   0.108  0.00  0.00    +0.040 C 
ATOM      4  N   LIG    1       -1.411   2.113   0.521  0.00  0.00    -0.317 NA
ATOM      5  H   LIG    1       -1.238   3.085   0.301  0.00  0.00    +0.122 HD
ATOM      6  C   LIG    1       -1.191   1.937   1.955  0.00  0.00    +0.062 C 
ATOM      7  C   LIG    1        0.311   1.938   2.309  0.00  0.00    -0.067 C 
ATOM      8  N   LIG    1        1.050   0.808   1.565  0.00  0.00    +0.383 N 
ATOM      9  H   LIG    1        0.607  -0.074   1.776  0.00  0.00    -0.085 HD
ATOM     10  H   LIG    1        0.940   0.938   0.569  0.00  0.00    -0.085 HD
ATOM     11  C   LIG    1        2.561   0.663   1.858  0.00  0.00    -0.055 C 
ATOM     12  C   LIG    1        2.730   0.065   3.281  0.00  0.00    -0.014 C 
ATOM     13  C   LIG    1        4.192  -0.295   3.602  0.00  0.00    -0.001 C 
ATOM     14  C   LIG    1        4.801  -1.216   2.530  0.00  0.00    +0.001 C 
ATOM     15  C   LIG    1        4.633  -0.633   1.115  0.00  0.00    +0.017 C 
ATOM     16  C   LIG    1        3.156  -0.300   0.783  0.00  0.00    +0.040 C 
ATOM     17  N   LIG    1        2.997   0.199  -0.586  0.00  0.00    -0.309 NA
ATOM     18  H   LIG    1        3.758   0.827  -0.803  0.00  0.00    +0.122 HD
ATOM     19  C   LIG    1        2.977  -0.850  -1.606  0.00  0.00    +0.136 C 
ATOM     20  C   LIG    1        1.696  -1.682  -1.606  0.00  0.00    +0.055 A 
ATOM     21  N   LIG    1        0.521  -0.996  -1.585  0.00  0.00    -0.257 NA
ATOM     22  C   LIG    1       -0.644  -1.701  -1.577  0.00  0.00    +0.025 A 
ATOM     23  C   LIG    1       -0.668  -3.099  -1.586  0.00  0.00    +0.021 A 
ATOM     24  C   LIG    1        0.545  -3.790  -1.611  0.00  0.00    +0.003 A 
ATOM     25  C   LIG    1       -1.945  -0.907  -1.501  0.00  0.00    -0.026 C 
ATOM     26  N   LIG    1       -1.858   0.566  -1.956  0.00  0.00    +0.386 N 
ATOM     27  H   LIG    1       -0.963   0.914  -1.642  0.00  0.00    -0.085 HD
ATOM     28  H   LIG    1       -1.853   0.593  -2.966  0.00  0.00    -0.085 HD
ATOM     29  C   LIG    1        1.746  -3.079  -1.619  0.00  0.00    +0.024 A 
ATOM     30  C   LIG    1       -2.930   1.543  -1.421  0.00  0.00    -0.054 C 
ATOM     31  C   LIG    1       -4.344   1.133  -1.883  0.00  0.00    -0.014 C 
ATOM     32  C   LIG    1       -5.402   2.131  -1.375  0.00  0.00    -0.001 C 
ENDROOT
TORSDOF 0
