REMARK  Name = DB18046
REMARK                            x       y       z     vdW  Elec       q    Type
REMARK                         _______ _______ _______ _____ _____    ______ ____
ROOT
ATOM      1  C   LIG    1       -1.305   4.129   0.220  0.00  0.00    +0.177 A 
ATOM      2  C   LIG    1       -0.732   3.470   1.323  0.00  0.00    +0.178 A 
ATOM      3  C   LIG    1       -0.355   2.128   1.206  0.00  0.00    +0.054 A 
ATOM      4  C   LIG    1       -0.564   1.434   0.011  0.00  0.00    -0.042 A 
ATOM      5  C   LIG    1       -1.180   2.080  -1.063  0.00  0.00    +0.007 A 
ATOM      6  C   LIG    1       -1.550   3.419  -0.958  0.00  0.00    +0.050 A 
ENDROOT
BRANCH   1   7
ATOM      7  O   LIG    1       -1.650   5.461   0.282  0.00  0.00    -0.391 OA
BRANCH   7   8
ATOM      8  C   LIG    1       -0.700   6.402   0.040  0.00  0.00    +0.516 C 
ATOM      9  O   LIG    1        0.490   6.199  -0.228  0.00  0.00    -0.202 OA
BRANCH   8  10
ATOM     10  O   LIG    1       -1.292   7.606   0.143  0.00  0.00    -0.434 OA
BRANCH  10  12
ATOM     11  C   LIG    1       -1.469  10.010   0.087  0.00  0.00    +0.048 C 
ATOM     12  C   LIG    1       -0.544   8.797  -0.053  0.00  0.00    +0.232 C 
ENDBRANCH  10  12
ENDBRANCH   8  10
ENDBRANCH   7   8
ENDBRANCH   1   7
BRANCH   2  13
ATOM     13  O   LIG    1       -0.480   4.138   2.502  0.00  0.00    -0.391 OA
BRANCH  13  14
ATOM     14  C   LIG    1       -1.482   4.298   3.404  0.00  0.00    +0.516 C 
ATOM     15  O   LIG    1       -2.637   3.865   3.311  0.00  0.00    -0.202 OA
BRANCH  14  16
ATOM     16  O   LIG    1       -0.992   5.030   4.422  0.00  0.00    -0.434 OA
BRANCH  16  17
ATOM     17  C   LIG    1       -1.819   5.383   5.523  0.00  0.00    +0.232 C 
ATOM     18  C   LIG    1       -1.014   6.225   6.517  0.00  0.00    +0.048 C 
ENDBRANCH  16  17
ENDBRANCH  14  16
ENDBRANCH  13  14
ENDBRANCH   2  13
BRANCH   4  19
ATOM     19  C   LIG    1       -0.070   0.002  -0.142  0.00  0.00    +0.054 C 
BRANCH  19  20
ATOM     20  C   LIG    1        1.458  -0.109  -0.347  0.00  0.00    +0.109 C 
BRANCH  20  21
ATOM     21  N   LIG    1        1.952   0.559  -1.552  0.00  0.00    -0.313 N 
ATOM     22  H   LIG    1        1.934   0.025  -2.409  0.00  0.00    +0.149 HD
ATOM     23  C   LIG    1        2.391   1.829  -1.580  0.00  0.00    +0.233 C 
ATOM     24  O   LIG    1        2.482   2.554  -0.588  0.00  0.00    -0.274 OA
BRANCH  23  25
ATOM     25  C   LIG    1        2.815   2.369  -2.955  0.00  0.00    +0.160 C 
BRANCH  25  26
ATOM     26  N   LIG    1        2.367   3.754  -3.126  0.00  0.00    -0.304 N 
ATOM     27  H   LIG    1        3.038   4.466  -2.876  0.00  0.00    +0.149 HD
ATOM     28  C   LIG    1        1.134   4.117  -3.513  0.00  0.00    +0.211 C 
ATOM     29  O   LIG    1        0.255   3.316  -3.829  0.00  0.00    -0.276 OA
ATOM     30  C   LIG    1        0.842   5.613  -3.554  0.00  0.00    +0.109 C 
ENDBRANCH  25  26
BRANCH  25  31
ATOM     31  C   LIG    1        4.347   2.293  -3.118  0.00  0.00    +0.042 C 
BRANCH  31  32
ATOM     32  C   LIG    1        4.845   2.725  -4.508  0.00  0.00    +0.071 C 
BRANCH  32  33
ATOM     33  S   LIG    1        6.638   2.600  -4.752  0.00  0.00    -0.164 S 
ATOM     34  C   LIG    1        6.840   0.801  -4.849  0.00  0.00    +0.084 C 
ENDBRANCH  32  33
ENDBRANCH  31  32
ENDBRANCH  25  31
ENDBRANCH  23  25
ENDBRANCH  20  21
ENDBRANCH  19  20
ENDBRANCH   4  19
TORSDOF 16
