REMARK  Name = DB18200
REMARK                            x       y       z     vdW  Elec       q    Type
REMARK                         _______ _______ _______ _____ _____    ______ ____
ROOT
ATOM      1  C   LIG    1       -1.910   2.983   0.592  0.00  0.00    +0.004 C 
ATOM      2  C   LIG    1       -3.247   3.744   0.393  0.00  0.00    -0.003 C 
ATOM      3  C   LIG    1       -3.219   5.136   1.073  0.00  0.00    +0.004 C 
ATOM      4  C   LIG    1       -4.577   5.851   0.974  0.00  0.00    +0.004 C 
ATOM      5  C   LIG    1       -5.713   4.978   1.561  0.00  0.00    -0.001 C 
ATOM      6  C   LIG    1       -5.830   3.603   0.805  0.00  0.00    -0.026 C 
ATOM      7  C   LIG    1       -6.208   3.787  -0.699  0.00  0.00    +0.012 C 
ATOM      8  C   LIG    1       -6.944   2.785   1.533  0.00  0.00    +0.011 C 
ATOM      9  C   LIG    1       -8.313   3.508   1.605  0.00  0.00    +0.048 C 
ATOM     10  C   LIG    1       -8.226   4.922   2.250  0.00  0.00    +0.126 C 
ATOM     11  C   LIG    1       -7.070   5.737   1.603  0.00  0.00    +0.052 C 
ATOM     12  C   LIG    1       -4.431   2.886   0.965  0.00  0.00    -0.001 C 
ATOM     13  C   LIG    1       -4.393   1.411   0.447  0.00  0.00    +0.005 C 
ATOM     14  C   LIG    1       -2.994   0.745   0.501  0.00  0.00    +0.013 C 
ATOM     15  C   LIG    1       -1.877   1.620  -0.135  0.00  0.00    +0.012 C 
ATOM     16  C   LIG    1       -2.110   1.716  -1.675  0.00  0.00    +0.018 C 
ATOM     17  C   LIG    1       -0.422   1.205   0.138  0.00  0.00    +0.064 C 
ATOM     18  N   LIG    1       -0.032   0.021   0.399  0.00  0.00    -0.096 NA
ATOM     19  C   LIG    1        0.401   2.507   0.028  0.00  0.00    +0.055 C 
ATOM     20  C   LIG    1       -0.599   3.661   0.214  0.00  0.00    +0.010 C 
ENDROOT
BRANCH  10  21
ATOM     21  C   LIG    1       -8.028   4.810   3.716  0.00  0.00    -0.071 C 
ATOM     22  C   LIG    1       -7.848   4.710   4.920  0.00  0.00    +0.007 C 
ENDBRANCH  10  21
BRANCH  10  23
ATOM     23  O   LIG    1       -9.447   5.604   2.044  0.00  0.00    -0.377 OA
ATOM     24  H   LIG    1       -9.590   5.692   1.099  0.00  0.00    +0.211 HD
ENDBRANCH  10  23
BRANCH  18  25
ATOM     25  O   LIG    1        1.355  -0.074   0.591  0.00  0.00    -0.409 OA
ATOM     26  H   LIG    1        1.469  -1.011   0.771  0.00  0.00    +0.328 HD
ENDBRANCH  18  25
TORSDOF 3
