REMARK  Name = DB18012
REMARK                            x       y       z     vdW  Elec       q    Type
REMARK                         _______ _______ _______ _____ _____    ______ ____
ROOT
ATOM      1  C   LIG    1        2.406   0.687   0.457  0.00  0.00    +0.238 C 
ATOM      2  N   LIG    1        3.763   0.734   0.448  0.00  0.00    -0.285 N 
ATOM      3  C   LIG    1        4.580   1.081   1.624  0.00  0.00    +0.163 C 
ATOM      4  C   LIG    1        5.865   0.259   1.410  0.00  0.00    +0.040 C 
ATOM      5  C   LIG    1        5.906  -0.111  -0.075  0.00  0.00    -0.010 C 
ATOM      6  C   LIG    1        7.213   0.136  -0.841  0.00  0.00    +0.013 C 
ATOM      7  C   LIG    1        4.927  -1.177  -0.531  0.00  0.00    +0.031 C 
ATOM      8  C   LIG    1        4.592   0.298  -0.682  0.00  0.00    +0.083 C 
ATOM      9  O   LIG    1        1.749   0.977   1.460  0.00  0.00    -0.274 OA
ENDROOT
BRANCH   3  10
ATOM     10  C   LIG    1        4.833   2.604   1.682  0.00  0.00    +0.239 C 
ATOM     11  N   LIG    1        4.546   3.195   2.862  0.00  0.00    -0.269 N 
ATOM     12  H   LIG    1        4.237   2.589   3.608  0.00  0.00    +0.156 HD
ATOM     13  O   LIG    1        5.340   3.181   0.716  0.00  0.00    -0.273 OA
BRANCH  11  14
ATOM     14  C   LIG    1        4.698   4.549   3.227  0.00  0.00    +0.129 A 
ATOM     15  C   LIG    1        4.718   4.869   4.599  0.00  0.00    -0.010 A 
ATOM     16  C   LIG    1        4.595   3.806   5.684  0.00  0.00    +0.047 C 
ATOM     17  C   LIG    1        4.862   6.211   4.967  0.00  0.00    +0.009 A 
ATOM     18  C   LIG    1        4.979   7.194   3.985  0.00  0.00    +0.036 A 
ATOM     19  C   LIG    1        4.950   6.810   2.645  0.00  0.00    +0.108 A 
ATOM     20 BR   LIG    1        5.113   8.142   1.297  0.00  0.00    -0.029 Br
ATOM     21  N   LIG    1        4.809   5.515   2.269  0.00  0.00    -0.225 NA
ENDBRANCH  11  14
ENDBRANCH   3  10
BRANCH   1  22
ATOM     22  C   LIG    1        1.684   0.278  -0.846  0.00  0.00    +0.240 C 
BRANCH  22  30
ATOM     23  C   LIG    1       -1.759   1.052  -0.731  0.00  0.00    +0.135 A 
ATOM     24  C   LIG    1       -1.894  -0.329  -0.351  0.00  0.00    +0.031 A 
ATOM     25  C   LIG    1       -2.948  -1.191  -0.002  0.00  0.00    +0.021 A 
ATOM     26  C   LIG    1       -2.677  -2.524   0.333  0.00  0.00    -0.014 A 
ATOM     27  C   LIG    1       -1.354  -2.981   0.316  0.00  0.00    +0.011 A 
ATOM     28  C   LIG    1       -0.277  -2.163  -0.025  0.00  0.00    +0.028 A 
ATOM     29  C   LIG    1       -0.572  -0.839  -0.361  0.00  0.00    +0.070 A 
ATOM     30  N   LIG    1        0.225   0.222  -0.749  0.00  0.00    -0.254 N 
ATOM     31  N   LIG    1       -0.496   1.344  -0.937  0.00  0.00    -0.167 NA
BRANCH  26  32
ATOM     32  C   LIG    1       -3.786  -3.445   0.705  0.00  0.00    +0.018 A 
ATOM     33  C   LIG    1       -3.822  -4.782   0.280  0.00  0.00    +0.122 A 
ATOM     34  N   LIG    1       -4.823  -5.641   0.610  0.00  0.00    -0.240 NA
ATOM     35  C   LIG    1       -5.810  -5.130   1.389  0.00  0.00    +0.126 A 
ATOM     36  C   LIG    1       -6.940  -6.064   1.778  0.00  0.00    +0.088 C 
ATOM     37  N   LIG    1       -5.885  -3.859   1.859  0.00  0.00    -0.240 NA
ATOM     38  C   LIG    1       -4.864  -3.034   1.505  0.00  0.00    +0.122 A 
ENDBRANCH  26  32
BRANCH  23  40
ATOM     39  C   LIG    1       -2.497   3.461  -1.256  0.00  0.00    +0.093 C 
ATOM     40  C   LIG    1       -2.845   2.023  -0.866  0.00  0.00    +0.181 C 
ATOM     41  O   LIG    1       -4.024   1.730  -0.675  0.00  0.00    -0.291 OA
ENDBRANCH  23  40
ENDBRANCH  22  30
ENDBRANCH   1  22
TORSDOF 6
