REMARK  Name = DB18214
REMARK                            x       y       z     vdW  Elec       q    Type
REMARK                         _______ _______ _______ _____ _____    ______ ____
ROOT
ATOM      1  C   LIG    1        1.726   0.084  -0.408  0.00  0.00    +0.185 C 
ENDROOT
BRANCH   1   2
ATOM      2  C   LIG    1        2.381  -0.410   0.913  0.00  0.00    +0.238 C 
ATOM      3  N   LIG    1        3.564   0.127   1.324  0.00  0.00    -0.300 N 
ATOM      4  C   LIG    1        4.033  -0.118   2.707  0.00  0.00    +0.109 C 
ATOM      5  C   LIG    1        3.704   1.176   3.503  0.00  0.00    +0.032 C 
ATOM      6  C   LIG    1        4.373   2.437   2.882  0.00  0.00    +0.018 C 
ATOM      7  C   LIG    1        4.129   3.666   3.723  0.00  0.00    -0.017 A 
ATOM      8  C   LIG    1        2.969   4.425   3.901  0.00  0.00    +0.006 A 
ATOM      9  C   LIG    1        2.971   5.487   4.807  0.00  0.00    +0.000 A 
ATOM     10  C   LIG    1        4.122   5.777   5.543  0.00  0.00    +0.002 A 
ATOM     11  C   LIG    1        5.277   5.012   5.370  0.00  0.00    +0.025 A 
ATOM     12  C   LIG    1        5.284   3.965   4.443  0.00  0.00    +0.055 A 
ATOM     13  N   LIG    1        6.312   3.068   4.120  0.00  0.00    -0.206 N 
ATOM     14  C   LIG    1        5.915   2.333   2.925  0.00  0.00    +0.143 C 
ATOM     15  C   LIG    1        3.874   2.526   1.415  0.00  0.00    +0.032 C 
ATOM     16  C   LIG    1        4.242   1.242   0.628  0.00  0.00    +0.109 C 
ATOM     17  O   LIG    1        1.796  -1.299   1.540  0.00  0.00    -0.273 OA
BRANCH  13  18
ATOM     18  S   LIG    1        8.037   3.304   4.478  0.00  0.00    +0.043 S 
ATOM     19  O   LIG    1        8.759   2.148   3.933  0.00  0.00    -0.155 OA
ATOM     20  O   LIG    1        8.146   3.654   5.898  0.00  0.00    -0.155 OA
ATOM     21  C   LIG    1        8.456   4.830   3.450  0.00  0.00    +0.218 C 
ENDBRANCH  13  18
ENDBRANCH   1   2
BRANCH   1  23
ATOM     22  C   LIG    1       -0.493   0.900   0.419  0.00  0.00    +0.202 C 
ATOM     23  N   LIG    1        0.259   0.078  -0.337  0.00  0.00    -0.303 N 
ATOM     24  H   LIG    1       -0.196  -0.625  -0.902  0.00  0.00    +0.149 HD
ATOM     25  O   LIG    1        0.017   1.779   1.122  0.00  0.00    -0.277 OA
BRANCH  22  27
ATOM     26  C   LIG    1       -2.410  -0.735   0.891  0.00  0.00    -0.001 C 
ATOM     27  C   LIG    1       -2.035   0.666   0.345  0.00  0.00    +0.001 C 
ATOM     28  C   LIG    1       -2.564   0.865  -1.098  0.00  0.00    -0.001 C 
BRANCH  27  29
ATOM     29  N   LIG    1       -2.762   1.700   1.236  0.00  0.00    +0.387 N 
ATOM     30  H   LIG    1       -2.468   1.597   2.197  0.00  0.00    -0.089 HD
ATOM     31  H   LIG    1       -2.552   2.638   0.923  0.00  0.00    -0.089 HD
ATOM     32  H   LIG    1       -3.761   1.559   1.187  0.00  0.00    -0.089 HD
ENDBRANCH  27  29
ENDBRANCH  22  27
ENDBRANCH   1  23
BRANCH   1  33
ATOM     33  C   LIG    1        2.228  -0.758  -1.602  0.00  0.00    +0.192 C 
BRANCH  33  34
ATOM     34  O   LIG    1        1.566  -0.298  -2.774  0.00  0.00    -0.373 OA
BRANCH  34  35
ATOM     35  C   LIG    1        1.859  -1.056  -3.940  0.00  0.00    +0.195 C 
BRANCH  35  36
ATOM     36  C   LIG    1        1.053  -0.529  -5.119  0.00  0.00    -0.022 A 
ATOM     37  C   LIG    1       -0.280  -0.139  -4.946  0.00  0.00    +0.006 A 
ATOM     38  C   LIG    1       -1.013   0.336  -6.030  0.00  0.00    +0.000 A 
ATOM     39  C   LIG    1       -0.415   0.414  -7.286  0.00  0.00    +0.000 A 
ATOM     40  C   LIG    1        0.909   0.020  -7.468  0.00  0.00    +0.000 A 
ATOM     41  C   LIG    1        1.643  -0.454  -6.383  0.00  0.00    +0.006 A 
ENDBRANCH  35  36
ENDBRANCH  34  35
ENDBRANCH  33  34
ENDBRANCH   1  33
TORSDOF 9
