REMARK  Name = DB18298
REMARK                            x       y       z     vdW  Elec       q    Type
REMARK                         _______ _______ _______ _____ _____    ______ ____
ROOT
ATOM      1  N   LIG    1        1.371   0.064   0.080  0.00  0.00    -0.281 N 
ATOM      2  H   LIG    1        1.763  -0.845  -0.116  0.00  0.00    +0.155 HD
ATOM      3  C   LIG    1        2.259   1.048   0.356  0.00  0.00    +0.248 C 
ATOM      4  O   LIG    1        1.945   2.194   0.682  0.00  0.00    -0.270 OA
ENDROOT
BRANCH   1   8
ATOM      5  C   LIG    1       -2.841  -0.024  -0.015  0.00  0.00    +0.158 A 
ATOM      6  C   LIG    1       -2.197   1.220  -0.017  0.00  0.00    +0.160 A 
ATOM      7  C   LIG    1       -0.802   1.284   0.017  0.00  0.00    +0.072 A 
ATOM      8  C   LIG    1       -0.036   0.106   0.060  0.00  0.00    +0.037 A 
ATOM      9  C   LIG    1       -0.691  -1.129   0.052  0.00  0.00    +0.027 A 
ATOM     10  C   LIG    1       -2.083  -1.194   0.018  0.00  0.00    +0.051 A 
BRANCH   5  11
ATOM     11  O   LIG    1       -4.210  -0.115  -0.051  0.00  0.00    -0.503 OA
ATOM     12  H   LIG    1       -4.527  -1.021  -0.052  0.00  0.00    +0.292 HD
ENDBRANCH   5  11
BRANCH   6  13
ATOM     13  O   LIG    1       -2.918   2.388  -0.057  0.00  0.00    -0.503 OA
ATOM     14  H   LIG    1       -2.363   3.172  -0.049  0.00  0.00    +0.292 HD
ENDBRANCH   6  13
ENDBRANCH   1   8
BRANCH   3  15
ATOM     15  C   LIG    1        3.723   0.670   0.235  0.00  0.00    +0.041 A 
ATOM     16  C   LIG    1        4.143  -0.670   0.157  0.00  0.00    +0.062 A 
ATOM     17  C   LIG    1        5.497  -0.995   0.049  0.00  0.00    +0.159 A 
ATOM     18  C   LIG    1        6.457   0.022   0.016  0.00  0.00    +0.158 A 
ATOM     19  C   LIG    1        6.055   1.355   0.095  0.00  0.00    +0.050 A 
ATOM     20  C   LIG    1        4.703   1.675   0.205  0.00  0.00    +0.017 A 
BRANCH  17  21
ATOM     21  O   LIG    1        5.865  -2.316  -0.024  0.00  0.00    -0.503 OA
ATOM     22  H   LIG    1        5.120  -2.920   0.014  0.00  0.00    +0.292 HD
ENDBRANCH  17  21
BRANCH  18  23
ATOM     23  O   LIG    1        7.795  -0.266  -0.092  0.00  0.00    -0.503 OA
ATOM     24  H   LIG    1        8.348   0.518  -0.105  0.00  0.00    +0.292 HD
ENDBRANCH  18  23
ENDBRANCH   3  15
TORSDOF 6
