REMARK  Name = DB18527
REMARK                            x       y       z     vdW  Elec       q    Type
REMARK                         _______ _______ _______ _____ _____    ______ ____
ROOT
ATOM      1  C   LIG    1        0.981  -0.142   0.136  0.00  0.00    +0.163 C 
ENDROOT
BRANCH   1   3
ATOM      2  C   LIG    1       -1.358   0.667  -0.419  0.00  0.00    +0.234 C 
ATOM      3  N   LIG    1       -0.476  -0.058   0.294  0.00  0.00    -0.302 N 
ATOM      4  H   LIG    1       -0.842  -0.617   1.052  0.00  0.00    +0.150 HD
ATOM      5  O   LIG    1       -1.069   1.406  -1.360  0.00  0.00    -0.274 OA
BRANCH   2   8
ATOM      6  C   LIG    1       -2.870   2.152   1.936  0.00  0.00    +0.237 C 
ATOM      7  N   LIG    1       -3.296   1.786   0.700  0.00  0.00    -0.288 N 
ATOM      8  C   LIG    1       -2.825   0.555   0.039  0.00  0.00    +0.162 C 
ATOM      9  C   LIG    1       -3.812   0.369  -1.126  0.00  0.00    +0.033 C 
ATOM     10  C   LIG    1       -4.272   1.774  -1.474  0.00  0.00    +0.021 C 
ATOM     11  C   LIG    1       -4.289   2.482  -0.124  0.00  0.00    +0.109 C 
ATOM     12  O   LIG    1       -2.074   1.489   2.603  0.00  0.00    -0.274 OA
BRANCH   6  13
ATOM     13  C   LIG    1       -3.436   3.448   2.553  0.00  0.00    +0.168 C 
BRANCH  13  14
ATOM     14  N   LIG    1       -4.497   3.071   3.490  0.00  0.00    -0.302 N 
ATOM     15  H   LIG    1       -4.191   2.565   4.309  0.00  0.00    +0.150 HD
ATOM     16  C   LIG    1       -5.805   3.339   3.342  0.00  0.00    +0.234 C 
ATOM     17  O   LIG    1       -6.267   3.913   2.353  0.00  0.00    -0.274 OA
BRANCH  16  18
ATOM     18  C   LIG    1       -6.739   2.784   4.440  0.00  0.00    +0.159 C 
ATOM     19  N   LIG    1       -7.672   3.817   4.893  0.00  0.00    -0.304 N 
ATOM     20  H   LIG    1       -7.349   4.614   5.422  0.00  0.00    +0.149 HD
ATOM     21  C   LIG    1       -8.959   3.672   4.526  0.00  0.00    +0.214 C 
ATOM     22  O   LIG    1       -9.901   4.419   4.778  0.00  0.00    -0.276 OA
ATOM     23  C   LIG    1       -9.026   2.375   3.725  0.00  0.00    +0.098 C 
ATOM     24  C   LIG    1       -7.677   1.699   3.906  0.00  0.00    +0.041 C 
ENDBRANCH  16  18
ENDBRANCH  13  14
BRANCH  13  25
ATOM     25  C   LIG    1       -2.339   4.227   3.321  0.00  0.00    +0.127 C 
BRANCH  25  29
ATOM     26  N   LIG    1       -2.467   6.652   2.999  0.00  0.00    -0.329 N 
ATOM     27  H   LIG    1       -1.938   6.508   2.151  0.00  0.00    +0.145 HD
ATOM     28  H   LIG    1       -2.746   7.587   3.255  0.00  0.00    +0.145 HD
ATOM     29  C   LIG    1       -2.799   5.617   3.775  0.00  0.00    +0.213 C 
ATOM     30  O   LIG    1       -3.440   5.753   4.814  0.00  0.00    -0.276 OA
ENDBRANCH  25  29
ENDBRANCH  13  25
ENDBRANCH   6  13
ENDBRANCH   2   8
ENDBRANCH   1   3
BRANCH   1  31
ATOM     31  C   LIG    1        1.426  -0.894  -1.134  0.00  0.00    +0.234 C 
ATOM     32  N   LIG    1        2.419  -1.784  -0.947  0.00  0.00    -0.302 N 
ATOM     33  H   LIG    1        2.761  -1.906  -0.006  0.00  0.00    +0.150 HD
ATOM     34  O   LIG    1        0.916  -0.629  -2.222  0.00  0.00    -0.274 OA
BRANCH  32  35
ATOM     35  C   LIG    1        3.122  -2.596  -1.951  0.00  0.00    +0.163 C 
BRANCH  35  36
ATOM     36  C   LIG    1        2.253  -3.709  -2.586  0.00  0.00    +0.231 C 
ATOM     37  O   LIG    1        1.066  -3.523  -2.849  0.00  0.00    -0.274 OA
ATOM     38  N   LIG    1        2.868  -4.864  -2.854  0.00  0.00    -0.328 N 
ATOM     39  H   LIG    1        2.355  -5.622  -3.279  0.00  0.00    +0.145 HD
ATOM     40  H   LIG    1        3.849  -4.982  -2.647  0.00  0.00    +0.145 HD
ENDBRANCH  35  36
BRANCH  35  41
ATOM     41  C   LIG    1        3.805  -1.684  -3.003  0.00  0.00    +0.069 C 
BRANCH  41  42
ATOM     42  C   LIG    1        4.714  -2.356  -3.991  0.00  0.00    -0.020 A 
ATOM     43  C   LIG    1        4.393  -2.896  -5.311  0.00  0.00    +0.003 A 
ATOM     44  C   LIG    1        3.222  -2.952  -6.104  0.00  0.00    +0.010 A 
ATOM     45  C   LIG    1        3.229  -3.560  -7.376  0.00  0.00    +0.001 A 
ATOM     46  C   LIG    1        4.412  -4.130  -7.887  0.00  0.00    +0.002 A 
ATOM     47  C   LIG    1        5.593  -4.095  -7.124  0.00  0.00    +0.026 A 
ATOM     48  C   LIG    1        5.573  -3.487  -5.856  0.00  0.00    +0.047 A 
ATOM     49  N   LIG    1        6.531  -3.300  -4.881  0.00  0.00    -0.360 N 
ATOM     50  H   LIG    1        7.492  -3.603  -4.934  0.00  0.00    +0.165 HD
ATOM     51  C   LIG    1        6.018  -2.644  -3.781  0.00  0.00    +0.087 A 
ENDBRANCH  41  42
ENDBRANCH  35  41
ENDBRANCH  32  35
ENDBRANCH   1  31
BRANCH   1  52
ATOM     52  C   LIG    1        1.650   1.251   0.273  0.00  0.00    +0.067 C 
BRANCH  52  53
ATOM     53  C   LIG    1        3.167   1.247   0.173  0.00  0.00    -0.045 A 
ATOM     54  C   LIG    1        3.805   1.692  -1.005  0.00  0.00    +0.007 A 
ATOM     55  C   LIG    1        5.209   1.655  -1.107  0.00  0.00    +0.045 A 
ATOM     56  C   LIG    1        5.981   1.173  -0.032  0.00  0.00    +0.117 A 
ATOM     57  C   LIG    1        5.348   0.733   1.147  0.00  0.00    +0.045 A 
ATOM     58  C   LIG    1        3.944   0.771   1.250  0.00  0.00    +0.007 A 
BRANCH  56  59
ATOM     59  O   LIG    1        7.340   1.131  -0.133  0.00  0.00    -0.507 OA
ATOM     60  H   LIG    1        7.664   1.459  -0.974  0.00  0.00    +0.292 HD
ENDBRANCH  56  59
ENDBRANCH  52  53
ENDBRANCH   1  52
TORSDOF 15
