REMARK  Name = DB18603
REMARK                            x       y       z     vdW  Elec       q    Type
REMARK                         _______ _______ _______ _____ _____    ______ ____
ROOT
ATOM      1  C   LIG    1       -1.063  -0.854  -0.050  0.00  0.00    +0.048 C 
ENDROOT
BRANCH   1   2
ATOM      2  C   LIG    1       -1.258  -1.470   1.359  0.00  0.00    +0.199 C 
ATOM      3  O   LIG    1       -0.506  -2.352   1.777  0.00  0.00    -0.278 OA
ATOM      4  N   LIG    1       -2.286  -1.002   2.071  0.00  0.00    -0.331 N 
ATOM      5  H   LIG    1       -2.470  -1.366   2.995  0.00  0.00    +0.145 HD
ATOM      6  H   LIG    1       -2.890  -0.286   1.692  0.00  0.00    +0.145 HD
ENDBRANCH   1   2
BRANCH   1   7
ATOM      7  N   LIG    1        0.419  -0.591  -0.200  0.00  0.00    +0.388 N 
ATOM      8  H   LIG    1        0.571  -0.452  -1.189  0.00  0.00    -0.085 HD
ATOM      9  H   LIG    1        0.908  -1.428   0.088  0.00  0.00    -0.085 HD
BRANCH   7  10
ATOM     10  C   LIG    1        0.961   0.645   0.546  0.00  0.00    -0.081 C 
BRANCH  10  11
ATOM     11  C   LIG    1        2.421   0.921   0.137  0.00  0.00    -0.010 C 
BRANCH  11  12
ATOM     12  C   LIG    1        3.456  -0.181   0.464  0.00  0.00    +0.094 C 
BRANCH  12  13
ATOM     13  C   LIG    1        3.503  -0.581   1.943  0.00  0.00    +0.213 C 
ATOM     14  N   LIG    1        4.360   0.103   2.722  0.00  0.00    -0.311 N 
ATOM     15  H   LIG    1        4.951   0.801   2.294  0.00  0.00    +0.149 HD
ATOM     16  O   LIG    1        2.780  -1.489   2.353  0.00  0.00    -0.276 OA
BRANCH  14  17
ATOM     17  C   LIG    1        4.578  -0.135   4.152  0.00  0.00    +0.139 C 
BRANCH  17  18
ATOM     18  C   LIG    1        5.514  -1.286   4.531  0.00  0.00    -0.030 A 
ATOM     19  C   LIG    1        5.669  -1.591   5.884  0.00  0.00    +0.007 A 
ATOM     20  C   LIG    1        6.525  -2.613   6.283  0.00  0.00    +0.023 A 
ATOM     21  C   LIG    1        7.244  -3.357   5.338  0.00  0.00    +0.030 A 
ATOM     22  C   LIG    1        7.071  -3.056   3.979  0.00  0.00    +0.023 A 
ATOM     23  C   LIG    1        6.220  -2.029   3.579  0.00  0.00    +0.007 A 
BRANCH  21  24
ATOM     24  N   LIG    1        8.097  -4.372   5.772  0.00  0.00    -0.330 N 
ATOM     25  C   LIG    1        8.583  -5.409   4.841  0.00  0.00    +0.108 C 
ATOM     26  C   LIG    1        9.098  -6.680   5.551  0.00  0.00    +0.063 C 
ATOM     27  C   LIG    1       10.182  -6.334   6.589  0.00  0.00    +0.176 C 
ATOM     28  C   LIG    1        9.732  -5.188   7.515  0.00  0.00    +0.063 C 
ATOM     29  C   LIG    1        9.184  -3.998   6.699  0.00  0.00    +0.108 C 
BRANCH  27  30
ATOM     30  O   LIG    1       10.790  -7.455   7.241  0.00  0.00    -0.489 OA
BRANCH  30  31
ATOM     31  C   LIG    1       10.122  -8.279   8.131  0.00  0.00    +0.121 A 
ATOM     32  C   LIG    1        8.770  -8.173   8.489  0.00  0.00    +0.049 A 
ATOM     33  C   LIG    1        8.212  -9.058   9.409  0.00  0.00    +0.049 A 
ATOM     34  C   LIG    1        8.994 -10.068   9.988  0.00  0.00    +0.130 A 
ATOM     35  C   LIG    1       10.335 -10.176   9.623  0.00  0.00    +0.049 A 
ATOM     36  C   LIG    1       10.892  -9.291   8.705  0.00  0.00    +0.049 A 
BRANCH  34  37
ATOM     37  O   LIG    1        8.534 -10.988  10.912  0.00  0.00    -0.406 OA
BRANCH  37  38
ATOM     38  C   LIG    1        7.187 -10.936  11.382  0.00  0.00    +0.575 C 
ATOM     39  F   LIG    1        6.312 -11.149  10.398  0.00  0.00    -0.133 F 
ATOM     40  F   LIG    1        6.926  -9.786  12.008  0.00  0.00    -0.133 F 
ATOM     41  F   LIG    1        7.039 -11.918  12.270  0.00  0.00    -0.133 F 
ENDBRANCH  37  38
ENDBRANCH  34  37
ENDBRANCH  30  31
ENDBRANCH  27  30
ENDBRANCH  21  24
ENDBRANCH  17  18
ENDBRANCH  14  17
ENDBRANCH  12  13
ENDBRANCH  11  12
ENDBRANCH  10  11
ENDBRANCH   7  10
ENDBRANCH   1   7
BRANCH   1  42
ATOM     42  C   LIG    1       -1.658  -1.769  -1.168  0.00  0.00    +0.148 C 
BRANCH  42  43
ATOM     43  C   LIG    1       -3.215  -1.768  -1.180  0.00  0.00    +0.180 C 
ATOM     44  C   LIG    1       -3.925  -2.392  -2.390  0.00  0.00    +0.179 C 
ATOM     45  C   LIG    1       -5.194  -1.548  -2.557  0.00  0.00    +0.195 C 
ATOM     46  C   LIG    1       -4.686  -0.171  -2.092  0.00  0.00    +0.255 C 
ATOM     47  O   LIG    1       -3.716  -0.437  -1.122  0.00  0.00    -0.345 OA
BRANCH  46  48
ATOM     48  N   LIG    1       -4.168   0.806  -3.056  0.00  0.00    -0.271 N 
ATOM     49  C   LIG    1       -4.082   2.130  -2.650  0.00  0.00    +0.331 A 
ATOM     50  O   LIG    1       -4.430   2.579  -1.557  0.00  0.00    -0.246 OA
ATOM     51  N   LIG    1       -3.532   2.971  -3.585  0.00  0.00    -0.275 N 
ATOM     52  H   LIG    1       -3.462   3.937  -3.301  0.00  0.00    +0.173 HD
ATOM     53  C   LIG    1       -3.046   2.698  -4.831  0.00  0.00    +0.254 A 
ATOM     54  O   LIG    1       -2.550   3.553  -5.560  0.00  0.00    -0.268 OA
ATOM     55  C   LIG    1       -3.168   1.297  -5.185  0.00  0.00    +0.088 A 
ATOM     56  C   LIG    1       -3.703   0.434  -4.299  0.00  0.00    +0.098 A 
ENDBRANCH  46  48
BRANCH  44  57
ATOM     57  O   LIG    1       -4.172  -3.779  -2.247  0.00  0.00    -0.386 OA
ATOM     58  H   LIG    1       -3.354  -4.215  -1.996  0.00  0.00    +0.210 HD
ENDBRANCH  44  57
BRANCH  45  59
ATOM     59  O   LIG    1       -6.278  -1.944  -1.730  0.00  0.00    -0.385 OA
ATOM     60  H   LIG    1       -6.616  -2.783  -2.053  0.00  0.00    +0.210 HD
ENDBRANCH  45  59
ENDBRANCH  42  43
BRANCH  42  61
ATOM     61  O   LIG    1       -1.127  -1.296  -2.413  0.00  0.00    -0.344 OA
BRANCH  61  62
ATOM     62  C   LIG    1       -0.546  -2.264  -3.243  0.00  0.00    +0.282 C 
ATOM     63  C   LIG    1        0.003  -1.579  -4.485  0.00  0.00    +0.201 C 
ATOM     64  C   LIG    1        1.007  -2.640  -4.943  0.00  0.00    +0.175 C 
ATOM     65  C   LIG    1        1.542  -3.233  -3.629  0.00  0.00    +0.135 C 
ATOM     66  O   LIG    1        0.568  -2.868  -2.651  0.00  0.00    -0.345 OA
BRANCH  63  67
ATOM     67  O   LIG    1       -1.040  -1.266  -5.391  0.00  0.00    -0.384 OA
ATOM     68  H   LIG    1       -0.694  -0.678  -6.066  0.00  0.00    +0.210 HD
ENDBRANCH  63  67
BRANCH  64  69
ATOM     69  O   LIG    1        0.443  -3.643  -5.774  0.00  0.00    -0.387 OA
ATOM     70  H   LIG    1       -0.030  -3.217  -6.494  0.00  0.00    +0.210 HD
ENDBRANCH  64  69
BRANCH  65  71
ATOM     71  C   LIG    1        2.933  -2.708  -3.209  0.00  0.00    -0.052 C 
BRANCH  71  72
ATOM     72  N   LIG    1        3.374  -3.330  -1.877  0.00  0.00    +0.380 N 
ATOM     73  H   LIG    1        2.718  -3.095  -1.146  0.00  0.00    -0.090 HD
ATOM     74  H   LIG    1        3.414  -4.337  -1.962  0.00  0.00    -0.090 HD
ATOM     75  H   LIG    1        4.290  -2.992  -1.617  0.00  0.00    -0.090 HD
ENDBRANCH  71  72
ENDBRANCH  65  71
ENDBRANCH  61  62
ENDBRANCH  42  61
ENDBRANCH   1  42
TORSDOF 24
