REMARK  Name = DB18392
REMARK                            x       y       z     vdW  Elec       q    Type
REMARK                         _______ _______ _______ _____ _____    ______ ____
ROOT
ATOM      1  C   LIG    1       -0.113  -0.076  -0.202  0.00  0.00    +0.190 C 
ATOM      2  O   LIG    1       -0.793  -1.073  -0.449  0.00  0.00    -0.285 OA
ENDROOT
BRANCH   1   3
ATOM      3  C   LIG    1       -0.743   1.320  -0.139  0.00  0.00    +0.097 C 
BRANCH   3   4
ATOM      4  C   LIG    1       -2.064   1.343   0.661  0.00  0.00    +0.129 C 
BRANCH   4   5
ATOM      5  C   LIG    1       -2.671   2.744   0.771  0.00  0.00    +0.307 C 
ATOM      6  O   LIG    1       -2.721   3.333   1.852  0.00  0.00    -0.251 OA
BRANCH   5   8
ATOM      7  C   LIG    1       -3.700   4.503  -0.505  0.00  0.00    +0.280 C 
ATOM      8  O   LIG    1       -3.114   3.212  -0.414  0.00  0.00    -0.468 OA
ENDBRANCH   5   8
ENDBRANCH   4   5
ENDBRANCH   3   4
ENDBRANCH   1   3
BRANCH   1   9
ATOM      9  S   LIG    1        1.700  -0.106   0.120  0.00  0.00    -0.087 S 
BRANCH   9  10
ATOM     10  C   LIG    1        1.986  -1.900  -0.041  0.00  0.00    +0.096 C 
BRANCH  10  11
ATOM     11  C   LIG    1        3.458  -2.354   0.032  0.00  0.00    +0.115 C 
BRANCH  11  12
ATOM     12  N   LIG    1        4.202  -1.840   1.184  0.00  0.00    -0.315 N 
ATOM     13  H   LIG    1        4.877  -1.114   0.994  0.00  0.00    +0.149 HD
ATOM     14  C   LIG    1        4.047  -2.259   2.452  0.00  0.00    +0.210 C 
ATOM     15  O   LIG    1        3.252  -3.136   2.792  0.00  0.00    -0.276 OA
ATOM     16  C   LIG    1        4.926  -1.588   3.502  0.00  0.00    +0.109 C 
ENDBRANCH  11  12
ENDBRANCH  10  11
ENDBRANCH   9  10
ENDBRANCH   1   9
TORSDOF 8
