REMARK  Name = DB18059
REMARK                            x       y       z     vdW  Elec       q    Type
REMARK                         _______ _______ _______ _____ _____    ______ ____
ROOT
ATOM      1  C   LIG    1        2.407   1.018  -1.458  0.00  0.00    +0.105 A 
ATOM      2  C   LIG    1        3.044   2.259  -1.502  0.00  0.00    +0.029 A 
ATOM      3  C   LIG    1        3.279   2.869  -2.731  0.00  0.00    +0.010 A 
ATOM      4  C   LIG    1        2.875   2.253  -3.920  0.00  0.00    -0.017 A 
ATOM      5  C   LIG    1        2.256   0.999  -3.863  0.00  0.00    +0.010 A 
ATOM      6  C   LIG    1        2.023   0.382  -2.638  0.00  0.00    +0.029 A 
ENDROOT
BRANCH   4   7
ATOM      7  C   LIG    1        3.109   2.927  -5.230  0.00  0.00    -0.000 A 
ATOM      8  C   LIG    1        2.065   3.302  -6.108  0.00  0.00    +0.061 A 
ATOM      9  C   LIG    1        2.366   3.929  -7.323  0.00  0.00    +0.039 A 
ATOM     10  C   LIG    1        3.688   4.192  -7.676  0.00  0.00    +0.042 A 
ATOM     11 CL   LIG    1        4.044   4.966  -9.178  0.00  0.00    -0.084 Cl
ATOM     12  C   LIG    1        4.720   3.834  -6.815  0.00  0.00    +0.020 A 
ATOM     13  C   LIG    1        4.430   3.211  -5.603  0.00  0.00    +0.011 A 
BRANCH   8  14
ATOM     14  C   LIG    1        0.655   3.088  -5.786  0.00  0.00    +0.100 C 
ATOM     15  N   LIG    1       -0.460   2.918  -5.529  0.00  0.00    -0.191 NA
ENDBRANCH   8  14
ENDBRANCH   4   7
BRANCH   1  16
ATOM     16  S   LIG    1        2.045   0.236   0.111  0.00  0.00    +0.059 S 
ATOM     17  O   LIG    1        2.509  -1.152   0.004  0.00  0.00    -0.153 OA
ATOM     18  O   LIG    1        2.537   1.115   1.179  0.00  0.00    -0.153 OA
BRANCH  16  19
ATOM     19  N   LIG    1        0.286   0.198   0.203  0.00  0.00    -0.187 NA
ATOM     20  H   LIG    1       -0.183  -0.564  -0.294  0.00  0.00    +0.148 HD
BRANCH  19  25
ATOM     21  C   LIG    1       -4.097   2.812  -0.317  0.00  0.00    +0.041 C 
ATOM     22  C   LIG    1       -2.724   3.359   0.182  0.00  0.00    +0.063 C 
ATOM     23  C   LIG    1       -2.443   2.532   1.486  0.00  0.00    +0.036 C 
ATOM     24  C   LIG    1       -1.675   1.215   1.250  0.00  0.00    +0.023 C 
ATOM     25  C   LIG    1       -0.470   1.461   0.332  0.00  0.00    +0.077 C 
ATOM     26  C   LIG    1       -1.044   1.787  -1.059  0.00  0.00    +0.023 C 
ATOM     27  C   LIG    1       -1.758   3.154  -1.037  0.00  0.00    +0.036 C 
BRANCH  22  28
ATOM     28  O   LIG    1       -3.135   4.695   0.402  0.00  0.00    -0.389 OA
ATOM     29  H   LIG    1       -2.529   5.280  -0.058  0.00  0.00    +0.210 HD
ENDBRANCH  22  28
ENDBRANCH  19  25
ENDBRANCH  16  19
ENDBRANCH   1  16
TORSDOF 6
