REMARK  Name = DB18208
REMARK                            x       y       z     vdW  Elec       q    Type
REMARK                         _______ _______ _______ _____ _____    ______ ____
ROOT
ATOM      1  N   LIG    1        1.188   0.149   2.828  0.00  0.00    -0.302 N 
ATOM      2  H   LIG    1        1.529  -0.799   2.751  0.00  0.00    +0.150 HD
ATOM      3  C   LIG    1        0.557   0.536   3.948  0.00  0.00    +0.234 C 
ATOM      4  O   LIG    1        0.121   1.673   4.140  0.00  0.00    -0.274 OA
ENDROOT
BRANCH   3   5
ATOM      5  C   LIG    1        0.438  -0.521   5.063  0.00  0.00    +0.162 C 
ATOM      6  N   LIG    1        1.152  -0.119   6.292  0.00  0.00    -0.288 N 
ATOM      7  C   LIG    1        2.480   0.150   6.314  0.00  0.00    +0.237 C 
ATOM      8  O   LIG    1        3.248  -0.148   5.396  0.00  0.00    -0.274 OA
ATOM      9  C   LIG    1        0.236  -0.041   7.429  0.00  0.00    +0.109 C 
ATOM     10  C   LIG    1       -0.937  -0.923   7.026  0.00  0.00    +0.021 C 
ATOM     11  C   LIG    1       -1.022  -0.714   5.525  0.00  0.00    +0.033 C 
BRANCH   7  12
ATOM     12  C   LIG    1        3.013   1.010   7.487  0.00  0.00    +0.159 C 
BRANCH  12  13
ATOM     13  N   LIG    1        4.465   0.898   7.619  0.00  0.00    -0.302 N 
ATOM     14  H   LIG    1        4.999   1.653   7.215  0.00  0.00    +0.150 HD
ATOM     15  C   LIG    1        5.122  -0.145   8.156  0.00  0.00    +0.234 C 
ATOM     16  O   LIG    1        4.577  -1.118   8.676  0.00  0.00    -0.274 OA
BRANCH  15  17
ATOM     17  C   LIG    1        6.660  -0.099   8.071  0.00  0.00    +0.162 C 
ATOM     18  N   LIG    1        7.195   0.528   6.842  0.00  0.00    -0.288 N 
ATOM     19  C   LIG    1        6.898   0.082   5.595  0.00  0.00    +0.237 C 
ATOM     20  O   LIG    1        6.296  -0.971   5.375  0.00  0.00    -0.274 OA
ATOM     21  C   LIG    1        8.092   1.635   7.172  0.00  0.00    +0.109 C 
ATOM     22  C   LIG    1        8.489   1.392   8.621  0.00  0.00    +0.021 C 
ATOM     23  C   LIG    1        7.250   0.749   9.214  0.00  0.00    +0.033 C 
BRANCH  19  24
ATOM     24  C   LIG    1        7.318   0.951   4.392  0.00  0.00    +0.159 C 
BRANCH  24  25
ATOM     25  N   LIG    1        8.509   0.359   3.787  0.00  0.00    -0.306 N 
ATOM     26  H   LIG    1        8.409  -0.600   3.485  0.00  0.00    +0.149 HD
ATOM     27  C   LIG    1        9.700   0.963   3.655  0.00  0.00    +0.197 C 
ATOM     28  O   LIG    1        9.901   2.121   4.024  0.00  0.00    -0.278 OA
BRANCH  27  29
ATOM     29  C   LIG    1       10.792   0.093   2.987  0.00  0.00    +0.019 C 
BRANCH  29  30
ATOM     30  N   LIG    1       12.182   0.697   2.979  0.00  0.00    +0.387 N 
ATOM     31  H   LIG    1       12.804   0.024   2.551  0.00  0.00    -0.081 HD
ATOM     32  C   LIG    1       12.822   0.884   4.385  0.00  0.00    -0.063 C 
ATOM     33  C   LIG    1       13.640  -0.358   4.816  0.00  0.00    +0.066 C 
ATOM     34  N   LIG    1       12.867  -1.615   4.832  0.00  0.00    -0.293 NA
ATOM     35  C   LIG    1       13.573  -2.742   4.202  0.00  0.00    +0.100 C 
ATOM     36  C   LIG    1       13.634  -2.710   2.648  0.00  0.00    +0.100 C 
ATOM     37  N   LIG    1       14.483  -1.685   2.017  0.00  0.00    -0.290 NA
ATOM     38  C   LIG    1       14.249  -1.680   0.560  0.00  0.00    +0.100 C 
ATOM     39  C   LIG    1       13.068  -0.766   0.158  0.00  0.00    +0.100 C 
ATOM     40  N   LIG    1       13.437   0.658   0.208  0.00  0.00    -0.293 NA
ATOM     41  C   LIG    1       12.293   1.524   0.537  0.00  0.00    +0.066 C 
ATOM     42  C   LIG    1       12.320   1.920   2.032  0.00  0.00    -0.063 C 
BRANCH  40  43
ATOM     43  C   LIG    1       14.113   1.056  -1.048  0.00  0.00    +0.205 C 
BRANCH  43  44
ATOM     44  C   LIG    1       14.848   2.426  -1.035  0.00  0.00    +0.319 C 
ATOM     45  O   LIG    1       15.237   2.837  -2.151  0.00  0.00    -0.250 OA
BRANCH  44  46
ATOM     46  O   LIG    1       15.027   3.053   0.037  0.00  0.00    -0.480 OA
ATOM     47  H   LIG    1       15.471   3.877   0.029  0.00  0.00    +0.295 HD
ENDBRANCH  44  46
ENDBRANCH  43  44
ENDBRANCH  40  43
BRANCH  37  48
ATOM     48  C   LIG    1       15.910  -1.944   2.308  0.00  0.00    +0.205 C 
BRANCH  48  49
ATOM     49  C   LIG    1       16.852  -0.731   2.084  0.00  0.00    +0.319 C 
ATOM     50  O   LIG    1       18.060  -1.006   1.913  0.00  0.00    -0.250 OA
BRANCH  49  51
ATOM     51  O   LIG    1       16.399   0.437   2.140  0.00  0.00    -0.480 OA
ATOM     52  H   LIG    1       16.970   1.168   2.004  0.00  0.00    +0.295 HD
ENDBRANCH  49  51
ENDBRANCH  48  49
ENDBRANCH  37  48
BRANCH  34  53
ATOM     53  C   LIG    1       12.457  -1.996   6.200  0.00  0.00    +0.205 C 
BRANCH  53  54
ATOM     54  C   LIG    1       11.380  -1.062   6.794  0.00  0.00    +0.319 C 
ATOM     55  O   LIG    1       10.209  -1.179   6.367  0.00  0.00    -0.250 OA
BRANCH  54  56
ATOM     56  O   LIG    1       11.744  -0.254   7.677  0.00  0.00    -0.480 OA
ATOM     57  H   LIG    1       11.121   0.330   8.063  0.00  0.00    +0.295 HD
ENDBRANCH  54  56
ENDBRANCH  53  54
ENDBRANCH  34  53
ENDBRANCH  29  30
ENDBRANCH  27  29
ENDBRANCH  24  25
BRANCH  24  58
ATOM     58  C   LIG    1        6.194   1.008   3.328  0.00  0.00    +0.033 C 
BRANCH  58  59
ATOM     59  C   LIG    1        6.507   1.864   2.085  0.00  0.00    +0.017 C 
BRANCH  59  60
ATOM     60  C   LIG    1        6.602   3.375   2.361  0.00  0.00    +0.084 C 
BRANCH  60  61
ATOM     61  N   LIG    1        6.997   4.127   1.156  0.00  0.00    -0.283 NA
ATOM     62  H   LIG    1        6.252   4.293   0.494  0.00  0.00    +0.125 HD
BRANCH  61  63
ATOM     63  C   LIG    1        8.227   4.563   0.819  0.00  0.00    +0.167 C 
BRANCH  63  64
ATOM     64  N   LIG    1        9.301   4.375   1.601  0.00  0.00    -0.297 NA
ATOM     65  H   LIG    1        9.210   3.887   2.482  0.00  0.00    +0.121 HD
ATOM     66  H   LIG    1       10.207   4.718   1.315  0.00  0.00    +0.121 HD
ENDBRANCH  63  64
BRANCH  63  67
ATOM     67  N   LIG    1        8.384   5.211  -0.343  0.00  0.00    -0.297 NA
ATOM     68  H   LIG    1        9.296   5.548  -0.619  0.00  0.00    +0.121 HD
ATOM     69  H   LIG    1        7.593   5.368  -0.952  0.00  0.00    +0.121 HD
ENDBRANCH  63  67
ENDBRANCH  61  63
ENDBRANCH  60  61
ENDBRANCH  59  60
ENDBRANCH  58  59
ENDBRANCH  24  58
ENDBRANCH  19  24
ENDBRANCH  15  17
ENDBRANCH  12  13
BRANCH  12  70
ATOM     70  C   LIG    1        2.660   2.506   7.298  0.00  0.00    +0.032 C 
BRANCH  70  71
ATOM     71  C   LIG    1        3.097   3.127   5.952  0.00  0.00    +0.000 C 
BRANCH  71  72
ATOM     72  C   LIG    1        2.697   4.607   5.826  0.00  0.00    -0.019 C 
BRANCH  72  73
ATOM     73  C   LIG    1        2.974   5.214   4.438  0.00  0.00    -0.086 C 
BRANCH  73  74
ATOM     74  N   LIG    1        2.067   4.686   3.401  0.00  0.00    +0.378 N 
ATOM     75  H   LIG    1        2.193   3.687   3.320  0.00  0.00    -0.090 HD
ATOM     76  H   LIG    1        1.110   4.881   3.658  0.00  0.00    -0.090 HD
ATOM     77  H   LIG    1        2.273   5.123   2.514  0.00  0.00    -0.090 HD
ENDBRANCH  73  74
ENDBRANCH  72  73
ENDBRANCH  71  72
ENDBRANCH  70  71
ENDBRANCH  12  70
ENDBRANCH   7  12
ENDBRANCH   3   5
BRANCH   1  78
ATOM     78  C   LIG    1        1.383   0.998   1.655  0.00  0.00    +0.159 C 
BRANCH  78  81
ATOM     79  N   LIG    1       -0.819   1.850   1.055  0.00  0.00    -0.302 N 
ATOM     80  H   LIG    1       -0.665   2.504   1.808  0.00  0.00    +0.150 HD
ATOM     81  C   LIG    1        0.132   0.949   0.762  0.00  0.00    +0.234 C 
ATOM     82  O   LIG    1        0.038   0.097  -0.122  0.00  0.00    -0.274 OA
BRANCH  79  83
ATOM     83  C   LIG    1       -2.120   1.936   0.394  0.00  0.00    +0.159 C 
BRANCH  83  86
ATOM     84  N   LIG    1       -2.946   2.428  -1.839  0.00  0.00    -0.302 N 
ATOM     85  H   LIG    1       -3.595   1.677  -1.655  0.00  0.00    +0.150 HD
ATOM     86  C   LIG    1       -2.036   2.750  -0.906  0.00  0.00    +0.234 C 
ATOM     87  O   LIG    1       -1.197   3.646  -1.023  0.00  0.00    -0.274 OA
BRANCH  84  88
ATOM     88  C   LIG    1       -3.115   3.107  -3.121  0.00  0.00    +0.163 C 
BRANCH  88  91
ATOM     89  N   LIG    1       -5.010   4.531  -2.561  0.00  0.00    -0.302 N 
ATOM     90  H   LIG    1       -4.335   5.041  -2.010  0.00  0.00    +0.150 HD
ATOM     91  C   LIG    1       -4.599   3.466  -3.271  0.00  0.00    +0.234 C 
ATOM     92  O   LIG    1       -5.337   2.768  -3.969  0.00  0.00    -0.274 OA
BRANCH  89  93
ATOM     93  C   LIG    1       -6.383   5.034  -2.501  0.00  0.00    +0.164 C 
BRANCH  93  96
ATOM     94  N   LIG    1       -7.926   5.011  -4.399  0.00  0.00    -0.305 N 
ATOM     95  H   LIG    1       -8.350   4.229  -3.920  0.00  0.00    +0.149 HD
ATOM     96  C   LIG    1       -6.841   5.593  -3.863  0.00  0.00    +0.234 C 
ATOM     97  O   LIG    1       -6.240   6.548  -4.359  0.00  0.00    -0.274 OA
BRANCH  94  98
ATOM     98  C   LIG    1       -8.631   5.516  -5.573  0.00  0.00    +0.200 C 
BRANCH  98 101
ATOM     99  N   LIG    1       -9.892   7.595  -5.845  0.00  0.00    -0.303 N 
ATOM    100  H   LIG    1       -9.324   7.733  -6.668  0.00  0.00    +0.149 HD
ATOM    101  C   LIG    1       -9.713   6.494  -5.098  0.00  0.00    +0.231 C 
ATOM    102  O   LIG    1      -10.382   6.245  -4.094  0.00  0.00    -0.274 OA
BRANCH  99 103
ATOM    103  C   LIG    1      -10.864   8.652  -5.556  0.00  0.00    +0.159 C 
BRANCH 103 104
ATOM    104  C   LIG    1      -12.310   8.193  -5.814  0.00  0.00    +0.234 C 
ATOM    105  N   LIG    1      -13.236   8.709  -4.989  0.00  0.00    -0.302 N 
ATOM    106  H   LIG    1      -12.945   9.341  -4.257  0.00  0.00    +0.150 HD
ATOM    107  O   LIG    1      -12.555   7.421  -6.742  0.00  0.00    -0.274 OA
BRANCH 105 108
ATOM    108  C   LIG    1      -14.678   8.469  -5.082  0.00  0.00    +0.160 C 
BRANCH 108 109
ATOM    109  C   LIG    1      -15.283   9.151  -6.331  0.00  0.00    +0.231 C 
ATOM    110  O   LIG    1      -15.103  10.352  -6.528  0.00  0.00    -0.274 OA
ATOM    111  N   LIG    1      -16.015   8.384  -7.144  0.00  0.00    -0.328 N 
ATOM    112  H   LIG    1      -16.439   8.785  -7.969  0.00  0.00    +0.145 HD
ATOM    113  H   LIG    1      -16.138   7.401  -6.950  0.00  0.00    +0.145 HD
ENDBRANCH 108 109
BRANCH 108 114
ATOM    114  C   LIG    1      -15.377   8.927  -3.781  0.00  0.00    +0.054 C 
BRANCH 114 115
ATOM    115  C   LIG    1      -16.904   8.723  -3.759  0.00  0.00    +0.168 C 
BRANCH 115 116
ATOM    116  S   LIG    1      -17.588   9.084  -2.035  0.00  0.00    -0.034 S 
ATOM    117  O   LIG    1      -17.369  10.504  -1.745  0.00  0.00    -0.175 OA
ATOM    118  O   LIG    1      -17.073   8.063  -1.116  0.00  0.00    -0.175 OA
ATOM    119  C   LIG    1      -19.443   8.809  -2.227  0.00  0.00    +0.194 C 
ENDBRANCH 115 116
ENDBRANCH 114 115
ENDBRANCH 108 114
ENDBRANCH 105 108
ENDBRANCH 103 104
BRANCH 103 120
ATOM    120  C   LIG    1      -10.537   9.893  -6.417  0.00  0.00    +0.034 C 
BRANCH 120 122
ATOM    121  C   LIG    1       -9.105  11.090  -4.650  0.00  0.00    +0.007 C 
ATOM    122  C   LIG    1       -9.181  10.565  -6.100  0.00  0.00    -0.015 C 
ATOM    123  C   LIG    1       -8.854  11.662  -7.137  0.00  0.00    +0.007 C 
ENDBRANCH 120 122
ENDBRANCH 103 120
ENDBRANCH  99 103
ENDBRANCH  98 101
ENDBRANCH  94  98
ENDBRANCH  93  96
BRANCH  93 124
ATOM    124  C   LIG    1       -6.544   6.071  -1.357  0.00  0.00    +0.074 C 
BRANCH 124 125
ATOM    125  C   LIG    1       -7.951   6.627  -1.201  0.00  0.00    -0.008 A 
ATOM    126  S   LIG    1       -8.369   8.221  -1.781  0.00  0.00    -0.102 S 
ATOM    127  C   LIG    1      -10.008   8.052  -1.253  0.00  0.00    +0.045 A 
ATOM    128  C   LIG    1      -10.226   6.825  -0.656  0.00  0.00    +0.008 A 
ATOM    129  C   LIG    1       -9.074   6.033  -0.625  0.00  0.00    +0.011 A 
ENDBRANCH 124 125
ENDBRANCH  93 124
ENDBRANCH  89  93
ENDBRANCH  88  91
BRANCH  88 130
ATOM    130  C   LIG    1       -2.592   2.211  -4.267  0.00  0.00    +0.067 C 
BRANCH 130 131
ATOM    131  C   LIG    1       -1.095   1.958  -4.240  0.00  0.00    -0.045 A 
ATOM    132  C   LIG    1       -0.576   0.819  -3.588  0.00  0.00    +0.004 A 
ATOM    133  C   LIG    1        0.796   0.640  -3.490  0.00  0.00    +0.000 A 
ATOM    134  C   LIG    1        1.665   1.594  -4.003  0.00  0.00    +0.000 A 
ATOM    135  C   LIG    1        1.170   2.743  -4.609  0.00  0.00    +0.000 A 
ATOM    136  C   LIG    1       -0.201   2.939  -4.719  0.00  0.00    +0.004 A 
ENDBRANCH 130 131
ENDBRANCH  88 130
ENDBRANCH  84  88
ENDBRANCH  83  86
BRANCH  83 137
ATOM    137  C   LIG    1       -3.137   2.583   1.364  0.00  0.00    +0.041 C 
BRANCH 137 138
ATOM    138  C   LIG    1       -3.337   1.882   2.729  0.00  0.00    +0.098 C 
BRANCH 138 139
ATOM    139  C   LIG    1       -3.617   0.380   2.635  0.00  0.00    +0.211 C 
ATOM    140  O   LIG    1       -2.693  -0.422   2.514  0.00  0.00    -0.276 OA
ATOM    141  N   LIG    1       -4.893  -0.006   2.705  0.00  0.00    -0.329 N 
ATOM    142  H   LIG    1       -5.128  -0.987   2.652  0.00  0.00    +0.145 HD
ATOM    143  H   LIG    1       -5.631   0.675   2.810  0.00  0.00    +0.145 HD
ENDBRANCH 138 139
ENDBRANCH 137 138
ENDBRANCH  83 137
ENDBRANCH  79  83
ENDBRANCH  78  81
BRANCH  78 144
ATOM    144  C   LIG    1        2.692   0.576   0.942  0.00  0.00    +0.041 C 
BRANCH 144 145
ATOM    145  C   LIG    1        3.048   1.338  -0.356  0.00  0.00    +0.098 C 
BRANCH 145 146
ATOM    146  C   LIG    1        2.999   2.865  -0.225  0.00  0.00    +0.211 C 
ATOM    147  O   LIG    1        3.586   3.435   0.692  0.00  0.00    -0.276 OA
ATOM    148  N   LIG    1        2.310   3.533  -1.153  0.00  0.00    -0.329 N 
ATOM    149  H   LIG    1        2.248   4.540  -1.122  0.00  0.00    +0.145 HD
ATOM    150  H   LIG    1        1.831   3.034  -1.891  0.00  0.00    +0.145 HD
ENDBRANCH 145 146
ENDBRANCH 144 145
ENDBRANCH  78 144
ENDBRANCH   1  78
TORSDOF 58
