REMARK  Name = DB18071
REMARK                            x       y       z     vdW  Elec       q    Type
REMARK                         _______ _______ _______ _____ _____    ______ ____
ROOT
ATOM      1  C   LIG    1       -1.161   1.816   1.024  0.00  0.00    +0.249 C 
ATOM      2  N   LIG    1       -0.782   1.367  -0.206  0.00  0.00    -0.287 N 
ATOM      3  C   LIG    1       -0.073   0.075  -0.383  0.00  0.00    +0.139 C 
ATOM      4  C   LIG    1       -0.562  -0.533  -1.719  0.00  0.00    +0.185 C 
ATOM      5  O   LIG    1       -0.403   0.389  -2.788  0.00  0.00    -0.376 OA
ATOM      6  C   LIG    1       -1.188   1.560  -2.603  0.00  0.00    +0.179 C 
ATOM      7  C   LIG    1       -0.748   2.324  -1.336  0.00  0.00    +0.136 C 
ATOM      8  O   LIG    1       -1.396   2.999   1.279  0.00  0.00    -0.270 OA
ENDROOT
BRANCH   1  10
ATOM      9  C   LIG    1       -0.519   0.589   3.186  0.00  0.00    +0.056 A 
ATOM     10  C   LIG    1       -1.405   0.795   2.106  0.00  0.00    +0.058 A 
ATOM     11  C   LIG    1       -2.569   0.015   2.050  0.00  0.00    +0.016 A 
ATOM     12  C   LIG    1       -2.829  -0.925   3.047  0.00  0.00    +0.020 A 
ATOM     13  C   LIG    1       -1.911  -1.060   4.086  0.00  0.00    +0.111 A 
ATOM     14  N   LIG    1       -0.776  -0.323   4.165  0.00  0.00    -0.259 NA
BRANCH   9  15
ATOM     15  C   LIG    1        0.806   1.342   3.365  0.00  0.00    +0.084 C 
BRANCH  15  16
ATOM     16  C   LIG    1        2.031   0.411   3.485  0.00  0.00    +0.162 C 
BRANCH  16  17
ATOM     17  O   LIG    1        3.227   1.161   3.511  0.00  0.00    -0.395 OA
ATOM     18  H   LIG    1        3.967   0.552   3.563  0.00  0.00    +0.209 HD
ENDBRANCH  16  17
ENDBRANCH  15  16
ENDBRANCH   9  15
ENDBRANCH   1  10
BRANCH   3  19
ATOM     19  C   LIG    1        1.462   0.201  -0.306  0.00  0.00    +0.253 C 
BRANCH  19  20
ATOM     20  O   LIG    1        2.025  -1.101  -0.177  0.00  0.00    -0.489 OA
BRANCH  20  21
ATOM     21  C   LIG    1        3.369  -1.260   0.123  0.00  0.00    +0.134 A 
ATOM     22  C   LIG    1        3.875  -2.566   0.325  0.00  0.00    +0.097 A 
ATOM     23  C   LIG    1        5.242  -2.736   0.634  0.00  0.00    +0.131 A 
ATOM     24  C   LIG    1        6.085  -1.630   0.737  0.00  0.00    +0.046 A 
ATOM     25  C   LIG    1        5.590  -0.349   0.534  0.00  0.00    +0.007 A 
ATOM     26  C   LIG    1        4.247  -0.165   0.227  0.00  0.00    +0.046 A 
BRANCH  22  27
ATOM     27  C   LIG    1        2.992  -3.776   0.222  0.00  0.00    +0.266 C 
ATOM     28  O   LIG    1        1.788  -3.773  -0.035  0.00  0.00    -0.295 OA
ENDBRANCH  22  27
BRANCH  23  29
ATOM     29  O   LIG    1        5.806  -3.972   0.847  0.00  0.00    -0.506 OA
ATOM     30  H   LIG    1        6.744  -3.925   1.045  0.00  0.00    +0.292 HD
ENDBRANCH  23  29
ENDBRANCH  20  21
ENDBRANCH  19  20
ENDBRANCH   3  19
TORSDOF 9
