REMARK  Name = DB18113
REMARK                            x       y       z     vdW  Elec       q    Type
REMARK                         _______ _______ _______ _____ _____    ______ ____
ROOT
ATOM      1  C   LIG    1       -3.491  11.256   4.155  0.00  0.00    -0.002 C 
ATOM      2  C   LIG    1       -3.192   9.735   4.395  0.00  0.00    -0.026 C 
ATOM      3  C   LIG    1       -2.876   9.466   5.901  0.00  0.00    +0.012 C 
ATOM      4  C   LIG    1       -4.265   8.755   3.845  0.00  0.00    +0.007 C 
ATOM      5  C   LIG    1       -3.787   7.288   3.909  0.00  0.00    +0.005 C 
ATOM      6  C   LIG    1       -2.428   7.043   3.173  0.00  0.00    +0.005 C 
ATOM      7  C   LIG    1       -1.904   5.557   3.284  0.00  0.00    -0.008 C 
ATOM      8  C   LIG    1       -1.788   5.097   4.765  0.00  0.00    +0.016 C 
ATOM      9  C   LIG    1       -2.880   4.613   2.502  0.00  0.00    +0.015 C 
ATOM     10  C   LIG    1       -2.356   3.188   2.252  0.00  0.00    +0.046 C 
ATOM     11  C   LIG    1       -1.002   3.248   1.523  0.00  0.00    +0.180 C 
ATOM     12  C   LIG    1        0.021   4.033   2.361  0.00  0.00    +0.075 C 
ATOM     13  C   LIG    1       -0.495   5.450   2.640  0.00  0.00    -0.061 C 
ATOM     14  C   LIG    1        0.264   6.530   2.355  0.00  0.00    +0.004 C 
ATOM     15  C   LIG    1       -0.094   7.983   2.617  0.00  0.00    +0.141 C 
ATOM     16  C   LIG    1       -1.342   8.113   3.538  0.00  0.00    +0.029 C 
ATOM     17  C   LIG    1       -1.963   9.545   3.467  0.00  0.00    +0.001 C 
ATOM     18  C   LIG    1       -1.080  10.765   3.737  0.00  0.00    +0.005 C 
ATOM     19  C   LIG    1       -2.077  11.892   4.040  0.00  0.00    +0.004 C 
ENDROOT
BRANCH   1  20
ATOM     20  C   LIG    1       -4.422  12.012   5.166  0.00  0.00    -0.010 C 
ATOM     21  C   LIG    1       -5.808  11.347   5.333  0.00  0.00    +0.008 C 
BRANCH  20  22
ATOM     22  C   LIG    1       -4.585  13.514   4.787  0.00  0.00    +0.003 C 
BRANCH  22  23
ATOM     23  C   LIG    1       -5.172  14.408   5.900  0.00  0.00    +0.001 C 
BRANCH  23  24
ATOM     24  C   LIG    1       -5.147  15.908   5.542  0.00  0.00    +0.003 C 
BRANCH  24  25
ATOM     25  C   LIG    1       -5.602  16.852   6.680  0.00  0.00    -0.017 C 
ATOM     26  C   LIG    1       -5.338  18.324   6.314  0.00  0.00    +0.007 C 
ATOM     27  C   LIG    1       -7.077  16.645   7.079  0.00  0.00    +0.007 C 
ENDBRANCH  24  25
ENDBRANCH  23  24
ENDBRANCH  22  23
ENDBRANCH  20  22
ENDBRANCH   1  20
BRANCH  15  28
ATOM     28  O   LIG    1        1.035   8.638   3.160  0.00  0.00    -0.387 OA
ATOM     29  H   LIG    1        1.735   8.633   2.504  0.00  0.00    +0.210 HD
ENDBRANCH  15  28
BRANCH  11  30
ATOM     30  O   LIG    1       -0.483   1.946   1.252  0.00  0.00    -0.461 OA
BRANCH  30  31
ATOM     31  C   LIG    1       -0.894   1.222   0.183  0.00  0.00    +0.307 C 
ATOM     32  O   LIG    1       -1.727   1.575  -0.654  0.00  0.00    -0.251 OA
BRANCH  31  33
ATOM     33  C   LIG    1       -0.212  -0.146   0.086  0.00  0.00    +0.120 C 
BRANCH  33  34
ATOM     34  C   LIG    1        1.329  -0.080   0.104  0.00  0.00    +0.011 C 
BRANCH  34  35
ATOM     35  C   LIG    1        1.979  -1.460  -0.099  0.00  0.00    +0.001 C 
BRANCH  35  36
ATOM     36  C   LIG    1        3.519  -1.417  -0.034  0.00  0.00    +0.000 C 
BRANCH  36  37
ATOM     37  C   LIG    1        4.210  -2.750  -0.384  0.00  0.00    +0.000 C 
BRANCH  37  38
ATOM     38  C   LIG    1        3.912  -3.901   0.597  0.00  0.00    +0.004 C 
BRANCH  38  39
ATOM     39  C   LIG    1        4.682  -5.189   0.260  0.00  0.00    +0.027 C 
BRANCH  39  40
ATOM     40  C   LIG    1        4.337  -6.346   1.185  0.00  0.00    -0.031 C 
ATOM     41  C   LIG    1        5.135  -6.964   2.079  0.00  0.00    -0.031 C 
BRANCH  41  42
ATOM     42  C   LIG    1        6.591  -6.664   2.401  0.00  0.00    +0.027 C 
BRANCH  42  43
ATOM     43  C   LIG    1        6.797  -6.189   3.849  0.00  0.00    +0.004 C 
BRANCH  43  44
ATOM     44  C   LIG    1        8.275  -5.909   4.183  0.00  0.00    +0.000 C 
BRANCH  44  45
ATOM     45  C   LIG    1        8.512  -5.352   5.601  0.00  0.00    +0.000 C 
BRANCH  45  46
ATOM     46  C   LIG    1        8.191  -6.344   6.736  0.00  0.00    -0.000 C 
BRANCH  46  47
ATOM     47  C   LIG    1        8.519  -5.780   8.132  0.00  0.00    -0.000 C 
BRANCH  47  48
ATOM     48  C   LIG    1        8.285  -6.771   9.289  0.00  0.00    -0.003 C 
ATOM     49  C   LIG    1        6.817  -7.178   9.488  0.00  0.00    +0.004 C 
ENDBRANCH  47  48
ENDBRANCH  46  47
ENDBRANCH  45  46
ENDBRANCH  44  45
ENDBRANCH  43  44
ENDBRANCH  42  43
ENDBRANCH  41  42
ENDBRANCH  39  40
ENDBRANCH  38  39
ENDBRANCH  37  38
ENDBRANCH  36  37
ENDBRANCH  35  36
ENDBRANCH  34  35
ENDBRANCH  33  34
ENDBRANCH  31  33
ENDBRANCH  30  31
ENDBRANCH  11  30
TORSDOF 23
