REMARK  Name = DB18536
REMARK                            x       y       z     vdW  Elec       q    Type
REMARK                         _______ _______ _______ _____ _____    ______ ____
ROOT
ATOM      1  C   LIG    1        1.418   0.001   0.000  0.00  0.00    +0.038 A 
ATOM      2  C   LIG    1        2.140   1.220   0.000  0.00  0.00    +0.074 A 
ATOM      3  C   LIG    1        1.436   2.568   0.000  0.00  0.00    +0.273 A 
ATOM      4  N   LIG    1        2.318   3.596   0.000  0.00  0.00    -0.263 N 
ATOM      5  H   LIG    1        1.874   4.503   0.000  0.00  0.00    +0.190 HD
ATOM      6  N   LIG    1        3.716   3.637   0.000  0.00  0.00    -0.263 N 
ATOM      7  H   LIG    1        4.203   4.493   0.000  0.00  0.00    +0.190 HD
ATOM      8  C   LIG    1        4.361   2.479   0.000  0.00  0.00    +0.271 A 
ATOM      9  O   LIG    1        5.591   2.408   0.000  0.00  0.00    -0.266 OA
ATOM     10  O   LIG    1        0.223   2.778   0.000  0.00  0.00    -0.266 OA
ATOM     11  C   LIG    1        3.551   1.187   0.000  0.00  0.00    +0.055 A 
ATOM     12  C   LIG    1        4.223  -0.045   0.000  0.00  0.00    +0.014 A 
ATOM     13  C   LIG    1        3.504  -1.236   0.000  0.00  0.00    +0.003 A 
ATOM     14  C   LIG    1        2.113  -1.211   0.000  0.00  0.00    +0.023 A 
ENDROOT
BRANCH   1  15
ATOM     15  N   LIG    1        0.021  -0.074   0.000  0.00  0.00    -0.357 N 
ATOM     16  H   LIG    1       -0.433  -0.976   0.000  0.00  0.00    +0.142 HD
ATOM     17  H   LIG    1       -0.513   0.784   0.000  0.00  0.00    +0.142 HD
ENDBRANCH   1  15
TORSDOF 1
