REMARK  Name = DB18215
REMARK                            x       y       z     vdW  Elec       q    Type
REMARK                         _______ _______ _______ _____ _____    ______ ____
ROOT
ATOM      1  C   LIG    1       -0.211   2.363   0.200  0.00  0.00    +0.044 C 
ATOM      2  C   LIG    1       -0.672   0.917   0.198  0.00  0.00    -0.044 C 
ATOM      3  C   LIG    1       -2.060   0.513   0.183  0.00  0.00    +0.015 C 
ATOM      4  C   LIG    1       -2.119  -0.815   0.117  0.00  0.00    +0.028 C 
ATOM      5  C   LIG    1       -3.336  -1.612   0.014  0.00  0.00    +0.196 C 
ATOM      6  O   LIG    1       -4.448  -1.172   0.317  0.00  0.00    -0.289 OA
ATOM      7  C   LIG    1       -3.083  -3.033  -0.555  0.00  0.00    +0.135 C 
ATOM      8  C   LIG    1       -3.025  -2.918  -2.098  0.00  0.00    +0.051 C 
ATOM      9  C   LIG    1       -1.800  -3.673   0.109  0.00  0.00    +0.028 C 
ATOM     10  C   LIG    1       -1.629  -5.183  -0.024  0.00  0.00    +0.015 C 
ATOM     11  C   LIG    1       -1.954  -4.578   1.324  0.00  0.00    +0.015 C 
ATOM     12  C   LIG    1       -0.578  -2.710   0.093  0.00  0.00    -0.055 C 
ATOM     13  C   LIG    1        0.810  -3.339   0.188  0.00  0.00    +0.040 C 
ATOM     14  C   LIG    1       -0.784  -1.360   0.111  0.00  0.00    -0.010 C 
ATOM     15  C   LIG    1        0.112  -0.192   0.129  0.00  0.00    -0.017 C 
ENDROOT
BRANCH   7  16
ATOM     16  O   LIG    1       -4.239  -3.828  -0.311  0.00  0.00    -0.380 OA
ATOM     17  H   LIG    1       -4.115  -4.682  -0.730  0.00  0.00    +0.211 HD
ENDBRANCH   7  16
BRANCH  15  18
ATOM     18  C   LIG    1        1.637  -0.150   0.025  0.00  0.00    +0.177 C 
BRANCH  18  19
ATOM     19  N   LIG    1        2.320   0.127   1.299  0.00  0.00    -0.163 N 
ATOM     20  C   LIG    1        2.928   1.295   1.648  0.00  0.00    +0.323 C 
ATOM     21  O   LIG    1        3.069   2.231   0.862  0.00  0.00    -0.251 OA
ATOM     22  N   LIG    1        3.386   1.405   2.903  0.00  0.00    -0.312 N 
ATOM     23  H   LIG    1        3.845   2.252   3.203  0.00  0.00    +0.147 HD
ATOM     24  H   LIG    1        3.263   0.645   3.556  0.00  0.00    +0.147 HD
BRANCH  19  25
ATOM     25  O   LIG    1        2.149  -0.856   2.293  0.00  0.00    -0.291 OA
ATOM     26  H   LIG    1        2.707  -1.574   1.987  0.00  0.00    +0.242 HD
ENDBRANCH  19  25
ENDBRANCH  18  19
ENDBRANCH  15  18
TORSDOF 4
