REMARK  Name = DB18090
REMARK                            x       y       z     vdW  Elec       q    Type
REMARK                         _______ _______ _______ _____ _____    ______ ____
ROOT
ATOM      1  P   LIG    1        2.441   0.958   1.122  0.00  0.00    +0.462 P 
ATOM      2  O   LIG    1        1.623   1.656   2.152  0.00  0.00    -0.228 OA
ENDROOT
BRANCH   1   3
ATOM      3  N   LIG    1        1.619   0.112  -0.107  0.00  0.00    -0.199 NA
ATOM      4  H   LIG    1        2.078  -0.711  -0.499  0.00  0.00    +0.135 HD
BRANCH   3   5
ATOM      5  C   LIG    1        0.188   0.212  -0.430  0.00  0.00    +0.171 C 
ATOM      6  C   LIG    1       -0.355   1.661  -0.509  0.00  0.00    +0.036 C 
BRANCH   5   7
ATOM      7  C   LIG    1       -0.102  -0.549  -1.715  0.00  0.00    +0.325 C 
ATOM      8  O   LIG    1       -0.589  -0.033  -2.725  0.00  0.00    -0.249 OA
BRANCH   7   9
ATOM      9  O   LIG    1        0.239  -1.862  -1.607  0.00  0.00    -0.461 OA
BRANCH   9  10
ATOM     10  C   LIG    1        0.116  -2.771  -2.704  0.00  0.00    +0.173 C 
ATOM     11  C   LIG    1        1.269  -2.561  -3.708  0.00  0.00    +0.052 C 
BRANCH  10  12
ATOM     12  C   LIG    1        0.102  -4.212  -2.153  0.00  0.00    +0.044 C 
BRANCH  12  14
ATOM     13  C   LIG    1       -1.116  -5.965  -0.737  0.00  0.00    +0.004 C 
ATOM     14  C   LIG    1       -1.099  -4.515  -1.237  0.00  0.00    +0.000 C 
ENDBRANCH  12  14
ENDBRANCH  10  12
ENDBRANCH   9  10
ENDBRANCH   7   9
ENDBRANCH   5   7
ENDBRANCH   3   5
ENDBRANCH   1   3
BRANCH   1  15
ATOM     15  O   LIG    1        3.432  -0.189   1.726  0.00  0.00    -0.413 OA
BRANCH  15  16
ATOM     16  C   LIG    1        4.667   0.028   2.285  0.00  0.00    +0.131 A 
ATOM     17  C   LIG    1        5.653  -0.939   2.089  0.00  0.00    +0.047 A 
ATOM     18  C   LIG    1        6.917  -0.771   2.650  0.00  0.00    +0.019 A 
ATOM     19  C   LIG    1        7.188   0.363   3.413  0.00  0.00    +0.018 A 
ATOM     20 BR   LIG    1        8.916   0.594   4.178  0.00  0.00    -0.050 Br
ATOM     21  C   LIG    1        6.205   1.329   3.621  0.00  0.00    +0.019 A 
ATOM     22  C   LIG    1        4.942   1.160   3.061  0.00  0.00    +0.047 A 
ENDBRANCH  15  16
ENDBRANCH   1  15
BRANCH   1  23
ATOM     23  O   LIG    1        3.474   1.922   0.298  0.00  0.00    -0.282 OA
BRANCH  23  24
ATOM     24  C   LIG    1        3.010   3.066  -0.404  0.00  0.00    +0.233 C 
BRANCH  24  25
ATOM     25  C   LIG    1        3.270   2.851  -1.890  0.00  0.00    +0.279 C 
ATOM     26  O   LIG    1        2.607   3.824  -2.616  0.00  0.00    -0.323 OA
ATOM     27  C   LIG    1        2.437   3.328  -3.904  0.00  0.00    +0.252 C 
ATOM     28  C   LIG    1        2.508   1.814  -3.714  0.00  0.00    +0.217 C 
ATOM     29  O   LIG    1        2.690   1.673  -2.322  0.00  0.00    -0.344 OA
BRANCH  27  30
ATOM     30  N   LIG    1        1.248   3.864  -4.571  0.00  0.00    -0.270 N 
ATOM     31  C   LIG    1        1.064   3.598  -5.923  0.00  0.00    +0.352 A 
ATOM     32  O   LIG    1        1.907   2.929  -6.526  0.00  0.00    -0.244 OA
ATOM     33  N   LIG    1       -0.103   4.134  -6.514  0.00  0.00    -0.178 NA
ATOM     34  C   LIG    1       -0.975   4.811  -5.849  0.00  0.00    +0.123 A 
ATOM     35  C   LIG    1       -0.807   5.066  -4.448  0.00  0.00    +0.061 A 
ATOM     36  C   LIG    1        0.301   4.579  -3.871  0.00  0.00    +0.096 A 
BRANCH  34  37
ATOM     37  N   LIG    1       -2.071   5.303  -6.445  0.00  0.00    -0.343 N 
ATOM     38  H   LIG    1       -2.227   5.148  -7.430  0.00  0.00    +0.144 HD
ATOM     39  H   LIG    1       -2.748   5.835  -5.918  0.00  0.00    +0.144 HD
ENDBRANCH  34  37
ENDBRANCH  27  30
ENDBRANCH  24  25
ENDBRANCH  23  24
ENDBRANCH   1  23
TORSDOF 14
