REMARK  Name = DB18523
REMARK                            x       y       z     vdW  Elec       q    Type
REMARK                         _______ _______ _______ _____ _____    ______ ____
ROOT
ATOM      1  N   LIG    1        1.483  -0.051  -0.042  0.00  0.00    -0.303 NA
ENDROOT
BRANCH   1   2
ATOM      2  C   LIG    1        0.016  -0.004   0.021  0.00  0.00    +0.066 C 
BRANCH   2   3
ATOM      3  C   LIG    1       -0.539   1.295  -0.610  0.00  0.00    -0.063 C 
BRANCH   3   4
ATOM      4  N   LIG    1       -2.031   1.500  -0.240  0.00  0.00    +0.380 N 
ATOM      5  H   LIG    1       -2.118   1.297   0.746  0.00  0.00    -0.082 HD
BRANCH   4   7
ATOM      6  C   LIG    1       -4.302   0.343  -0.260  0.00  0.00    -0.017 C 
ATOM      7  C   LIG    1       -2.956   0.504  -0.987  0.00  0.00    -0.082 C 
ENDBRANCH   4   7
BRANCH   4   8
ATOM      8  C   LIG    1       -2.479   2.972  -0.435  0.00  0.00    -0.082 C 
ATOM      9  C   LIG    1       -1.933   3.875   0.685  0.00  0.00    -0.017 C 
ENDBRANCH   4   8
ENDBRANCH   3   4
ENDBRANCH   2   3
ENDBRANCH   1   2
BRANCH   1  10
ATOM     10  C   LIG    1        1.974  -1.098   0.871  0.00  0.00    +0.094 C 
BRANCH  10  11
ATOM     11  C   LIG    1        3.497  -1.101   1.129  0.00  0.00    +0.081 C 
BRANCH  11  12
ATOM     12  S   LIG    1        4.070   0.486   1.808  0.00  0.00    -0.177 S 
ATOM     13  H   LIG    1        5.348   0.124   1.955  0.00  0.00    +0.102 HD
ENDBRANCH  11  12
ENDBRANCH  10  11
ENDBRANCH   1  10
BRANCH   1  14
ATOM     14  C   LIG    1        1.970  -0.238  -1.424  0.00  0.00    +0.094 C 
BRANCH  14  15
ATOM     15  C   LIG    1        3.168   0.667  -1.786  0.00  0.00    +0.081 C 
BRANCH  15  16
ATOM     16  S   LIG    1        2.779   2.432  -1.587  0.00  0.00    -0.177 S 
ATOM     17  H   LIG    1        3.979   2.885  -1.962  0.00  0.00    +0.102 HD
ENDBRANCH  15  16
ENDBRANCH  14  15
ENDBRANCH   1  14
TORSDOF 11
