REMARK  Name = DB18665
REMARK                            x       y       z     vdW  Elec       q    Type
REMARK                         _______ _______ _______ _____ _____    ______ ____
ROOT
ATOM      1  O   LIG    1        3.158   1.599   2.036  0.00  0.00    -0.245 OA
ATOM      2  C   LIG    1        4.073   1.913   1.278  0.00  0.00    +0.337 A 
ATOM      3  O   LIG    1        5.279   2.266   1.878  0.00  0.00    -0.422 OA
ATOM      4  C   LIG    1        6.395   2.642   1.137  0.00  0.00    +0.143 A 
ATOM      5  C   LIG    1        7.546   2.973   1.853  0.00  0.00    +0.093 A 
ATOM      6  C   LIG    1        8.666   3.350   1.103  0.00  0.00    +0.138 A 
ATOM      7  O   LIG    1        9.882   3.710   1.610  0.00  0.00    -0.463 OA
ATOM      8  C   LIG    1       10.667   3.996   0.533  0.00  0.00    +0.196 A 
ATOM      9  C   LIG    1        9.987   3.829  -0.664  0.00  0.00    +0.049 A 
ATOM     10  C   LIG    1        8.667   3.405  -0.313  0.00  0.00    +0.021 A 
ATOM     11  C   LIG    1        7.493   3.066  -1.007  0.00  0.00    +0.023 A 
ATOM     12  C   LIG    1        6.368   2.687  -0.266  0.00  0.00    +0.018 A 
ATOM     13  C   LIG    1        5.106   2.318  -0.910  0.00  0.00    +0.018 A 
ATOM     14  C   LIG    1        4.027   1.955  -0.192  0.00  0.00    +0.092 A 
ENDROOT
TORSDOF 0
