REMARK  Name = DB18314
REMARK                            x       y       z     vdW  Elec       q    Type
REMARK                         _______ _______ _______ _____ _____    ______ ____
ROOT
ATOM      1  C   LIG    1       -4.200   1.850   0.089  0.00  0.00    +0.254 C 
ATOM      2  O   LIG    1       -2.866   2.280  -0.046  0.00  0.00    -0.447 OA
ATOM      3  C   LIG    1       -2.071   1.205   0.208  0.00  0.00    +0.172 A 
ATOM      4  C   LIG    1       -0.678   1.126   0.160  0.00  0.00    +0.007 A 
ATOM      5  C   LIG    1       -0.084  -0.132   0.457  0.00  0.00    +0.045 A 
ATOM      6  C   LIG    1       -0.918  -1.228   0.786  0.00  0.00    +0.037 A 
ATOM      7  C   LIG    1       -2.311  -1.104   0.824  0.00  0.00    +0.087 A 
ATOM      8 CL   LIG    1       -3.309  -2.455   1.222  0.00  0.00    -0.080 Cl
ATOM      9  C   LIG    1        0.134   2.353  -0.246  0.00  0.00    +0.048 C 
ATOM     10  C   LIG    1       -2.856   0.136   0.527  0.00  0.00    +0.185 A 
ATOM     11  O   LIG    1       -4.166   0.499   0.481  0.00  0.00    -0.446 OA
ATOM     12  C   LIG    1       -4.849   2.643   1.223  0.00  0.00    +0.105 C 
ENDROOT
BRANCH   1  13
ATOM     13  C   LIG    1       -4.924   1.973  -1.277  0.00  0.00    +0.074 C 
ATOM     14  C   LIG    1       -4.405   0.966  -2.335  0.00  0.00    +0.009 C 
ATOM     15  C   LIG    1       -5.188   1.044  -3.660  0.00  0.00    -0.015 C 
ATOM     16  C   LIG    1       -5.239   2.478  -4.255  0.00  0.00    -0.069 C 
ATOM     17  C   LIG    1       -5.653   3.529  -3.189  0.00  0.00    -0.015 C 
ATOM     18  C   LIG    1       -4.863   3.403  -1.871  0.00  0.00    +0.009 C 
BRANCH  16  19
ATOM     19  N   LIG    1       -6.203   2.543  -5.480  0.00  0.00    +0.378 N 
ATOM     20  H   LIG    1       -7.139   2.423  -5.120  0.00  0.00    -0.082 HD
ATOM     21  C   LIG    1       -5.985   1.420  -6.520  0.00  0.00    -0.096 C 
ATOM     22  C   LIG    1       -6.178   3.913  -6.196  0.00  0.00    -0.096 C 
ENDBRANCH  16  19
ENDBRANCH   1  13
BRANCH   5  23
ATOM     23  C   LIG    1        1.417  -0.332   0.448  0.00  0.00    +0.245 C 
ATOM     24  N   LIG    1        1.846  -1.506  -0.053  0.00  0.00    -0.307 N 
ATOM     25  H   LIG    1        1.163  -2.152  -0.421  0.00  0.00    +0.149 HD
ATOM     26  O   LIG    1        2.180   0.541   0.865  0.00  0.00    -0.270 OA
BRANCH  24  27
ATOM     27  C   LIG    1        3.249  -1.903  -0.195  0.00  0.00    +0.145 C 
BRANCH  27  28
ATOM     28  C   LIG    1        4.008  -1.202  -1.338  0.00  0.00    +0.037 A 
ATOM     29  C   LIG    1        3.507  -1.512  -2.695  0.00  0.00    +0.254 A 
ATOM     30  O   LIG    1        2.569  -2.268  -2.947  0.00  0.00    -0.268 OA
ATOM     31  N   LIG    1        4.164  -0.892  -3.713  0.00  0.00    -0.326 N 
ATOM     32  H   LIG    1        3.820  -1.092  -4.640  0.00  0.00    +0.169 HD
ATOM     33  C   LIG    1        5.233  -0.058  -3.541  0.00  0.00    +0.016 A 
ATOM     34  C   LIG    1        5.805   0.509  -4.826  0.00  0.00    +0.063 C 
ATOM     35  C   LIG    1        5.720   0.217  -2.315  0.00  0.00    +0.024 A 
ATOM     36  C   LIG    1        5.090  -0.382  -1.141  0.00  0.00    -0.039 A 
ATOM     37  C   LIG    1        5.601   0.037   0.231  0.00  0.00    +0.044 C 
ENDBRANCH  27  28
ENDBRANCH  24  27
ENDBRANCH   5  23
TORSDOF 5
