REMARK  Name = DB18484
REMARK                            x       y       z     vdW  Elec       q    Type
REMARK                         _______ _______ _______ _____ _____    ______ ____
ROOT
ATOM      1  N   LIG    1       -3.051   0.631   0.617  0.00  0.00    +0.389 N 
ATOM      2  H   LIG    1       -2.718  -0.232   0.209  0.00  0.00    -0.081 HD
ATOM      3  C   LIG    1       -3.930   0.180   1.813  0.00  0.00    -0.062 C 
ATOM      4  C   LIG    1       -4.251  -1.328   1.713  0.00  0.00    +0.066 C 
ATOM      5  N   LIG    1       -4.928  -1.683   0.460  0.00  0.00    -0.292 NA
ATOM      6  C   LIG    1       -4.507  -2.937  -0.173  0.00  0.00    +0.100 C 
ATOM      7  C   LIG    1       -3.166  -2.845  -0.949  0.00  0.00    +0.100 C 
ATOM      8  N   LIG    1       -1.936  -2.589  -0.179  0.00  0.00    -0.289 NA
ATOM      9  C   LIG    1       -0.842  -2.274  -1.115  0.00  0.00    +0.100 C 
ATOM     10  C   LIG    1       -0.750  -0.752  -1.377  0.00  0.00    +0.100 C 
ATOM     11  N   LIG    1       -0.189  -0.030  -0.227  0.00  0.00    -0.292 NA
ATOM     12  C   LIG    1       -0.673   1.343  -0.039  0.00  0.00    +0.066 C 
ATOM     13  C   LIG    1       -1.775   1.394   1.043  0.00  0.00    -0.062 C 
ENDROOT
BRANCH   1  14
ATOM     14  C   LIG    1       -3.850   1.369  -0.485  0.00  0.00    +0.051 C 
BRANCH  14  15
ATOM     15  P   LIG    1       -4.447   3.175  -0.375  0.00  0.00    +0.312 P 
ATOM     16  O   LIG    1       -5.189   3.215   0.973  0.00  0.00    -0.261 OA
BRANCH  15  17
ATOM     17  O   LIG    1       -5.341   3.297  -1.623  0.00  0.00    -0.325 OA
ATOM     18  H   LIG    1       -5.707   4.194  -1.671  0.00  0.00    +0.220 HD
ENDBRANCH  15  17
BRANCH  15  19
ATOM     19  O   LIG    1       -3.135   3.979  -0.429  0.00  0.00    -0.325 OA
ATOM     20  H   LIG    1       -3.334   4.927  -0.379  0.00  0.00    +0.220 HD
ENDBRANCH  15  19
ENDBRANCH  14  15
ENDBRANCH   1  14
BRANCH   5  21
ATOM     21  C   LIG    1       -6.385  -1.480   0.517  0.00  0.00    +0.212 C 
BRANCH  21  22
ATOM     22  P   LIG    1       -7.348  -2.854   1.414  0.00  0.00    +0.342 P 
ATOM     23  O   LIG    1       -6.537  -3.426   2.557  0.00  0.00    -0.257 OA
BRANCH  22  24
ATOM     24  O   LIG    1       -7.331  -4.000   0.138  0.00  0.00    -0.323 OA
ATOM     25  H   LIG    1       -7.974  -3.997  -0.596  0.00  0.00    +0.220 HD
ENDBRANCH  22  24
BRANCH  22  26
ATOM     26  O   LIG    1       -8.781  -2.403   1.582  0.00  0.00    -0.323 OA
ATOM     27  H   LIG    1       -9.116  -2.070   0.735  0.00  0.00    +0.220 HD
ENDBRANCH  22  26
ENDBRANCH  21  22
ENDBRANCH   5  21
BRANCH   8  28
ATOM     28  C   LIG    1       -1.609  -3.735   0.680  0.00  0.00    +0.212 C 
BRANCH  28  29
ATOM     29  P   LIG    1       -0.396  -3.222   2.037  0.00  0.00    +0.342 P 
ATOM     30  O   LIG    1        1.020  -3.303   1.512  0.00  0.00    -0.257 OA
BRANCH  29  31
ATOM     31  O   LIG    1       -0.641  -4.595   3.034  0.00  0.00    -0.323 OA
ATOM     32  H   LIG    1       -0.168  -5.439   2.912  0.00  0.00    +0.220 HD
ENDBRANCH  29  31
BRANCH  29  33
ATOM     33  O   LIG    1       -0.929  -2.015   2.776  0.00  0.00    -0.323 OA
ATOM     34  H   LIG    1       -1.855  -2.170   3.023  0.00  0.00    +0.220 HD
ENDBRANCH  29  33
ENDBRANCH  28  29
ENDBRANCH   8  28
BRANCH  11  35
ATOM     35  C   LIG    1        1.263  -0.177  -0.034  0.00  0.00    +0.212 C 
BRANCH  35  36
ATOM     36  P   LIG    1        2.303   0.630  -1.398  0.00  0.00    +0.342 P 
ATOM     37  O   LIG    1        2.276  -0.232  -2.642  0.00  0.00    -0.257 OA
BRANCH  36  38
ATOM     38  O   LIG    1        3.818   0.375  -0.640  0.00  0.00    -0.323 OA
ATOM     39  H   LIG    1        4.303  -0.471  -0.679  0.00  0.00    +0.220 HD
ENDBRANCH  36  38
BRANCH  36  40
ATOM     40  O   LIG    1        2.057   2.122  -1.432  0.00  0.00    -0.323 OA
ATOM     41  H   LIG    1        2.120   2.481  -0.533  0.00  0.00    +0.220 HD
ENDBRANCH  36  40
ENDBRANCH  35  36
ENDBRANCH  11  35
TORSDOF 16
