REMARK  Name = DB18305
REMARK                            x       y       z     vdW  Elec       q    Type
REMARK                         _______ _______ _______ _____ _____    ______ ____
ROOT
ATOM      1  C   LIG    1       -0.697   0.239  -0.771  0.00  0.00    +0.101 A 
ATOM      2  C   LIG    1        0.183  -0.733  -0.229  0.00  0.00    +0.080 A 
ATOM      3  C   LIG    1       -0.663  -1.744   0.219  0.00  0.00    +0.122 A 
ATOM      4  N   LIG    1       -1.935  -1.323  -0.049  0.00  0.00    -0.266 N 
ATOM      5  N   LIG    1       -1.956  -0.140  -0.671  0.00  0.00    -0.173 NA
ENDROOT
BRANCH   2   6
ATOM      6  C   LIG    1        1.627  -0.685  -0.142  0.00  0.00    +0.248 C 
ATOM      7  N   LIG    1        2.198  -1.787   0.383  0.00  0.00    -0.306 N 
ATOM      8  H   LIG    1        1.612  -2.587   0.570  0.00  0.00    +0.149 HD
ATOM      9  O   LIG    1        2.268   0.300  -0.512  0.00  0.00    -0.270 OA
BRANCH   7  10
ATOM     10  C   LIG    1        3.642  -1.985   0.547  0.00  0.00    +0.163 C 
BRANCH  10  11
ATOM     11  C   LIG    1        4.446  -2.328  -0.714  0.00  0.00    +0.097 A 
ATOM     12  C   LIG    1        5.846  -2.265  -0.696  0.00  0.00    +0.187 A 
ATOM     13  F   LIG    1        6.502  -1.909   0.434  0.00  0.00    -0.200 F 
ATOM     14  C   LIG    1        6.565  -2.574  -1.858  0.00  0.00    +0.158 A 
ATOM     15  C   LIG    1        5.846  -2.942  -3.009  0.00  0.00    +0.068 A 
ATOM     16  C   LIG    1        4.453  -2.985  -2.951  0.00  0.00    +0.115 A 
ATOM     17  N   LIG    1        3.752  -2.686  -1.830  0.00  0.00    -0.255 NA
BRANCH  14  18
ATOM     18  O   LIG    1        7.944  -2.494  -1.793  0.00  0.00    -0.492 OA
ATOM     19  C   LIG    1        8.711  -2.789  -2.955  0.00  0.00    +0.277 C 
ENDBRANCH  14  18
ENDBRANCH  10  11
ENDBRANCH   7  10
ENDBRANCH   2   6
BRANCH   1  20
ATOM     20  C   LIG    1       -0.400   1.573  -1.431  0.00  0.00    +0.217 C 
BRANCH  20  22
ATOM     21  C   LIG    1       -0.162   3.888  -0.951  0.00  0.00    +0.194 C 
ATOM     22  O   LIG    1       -0.452   2.595  -0.444  0.00  0.00    -0.377 OA
ENDBRANCH  20  22
ENDBRANCH   1  20
BRANCH   4  23
ATOM     23  C   LIG    1       -3.176  -2.062   0.144  0.00  0.00    +0.178 C 
BRANCH  23  24
ATOM     24  C   LIG    1       -3.630  -2.803  -1.105  0.00  0.00    -0.026 A 
ATOM     25  C   LIG    1       -4.377  -2.137  -2.079  0.00  0.00    +0.006 A 
ATOM     26  C   LIG    1       -4.777  -2.809  -3.229  0.00  0.00    +0.006 A 
ATOM     27  C   LIG    1       -4.434  -4.153  -3.410  0.00  0.00    -0.028 A 
ATOM     28  C   LIG    1       -3.686  -4.818  -2.436  0.00  0.00    +0.006 A 
ATOM     29  C   LIG    1       -3.283  -4.144  -1.286  0.00  0.00    +0.006 A 
BRANCH  27  30
ATOM     30  C   LIG    1       -4.870  -4.906  -4.665  0.00  0.00    +0.160 C 
BRANCH  30  31
ATOM     31  N   LIG    1       -6.279  -4.720  -5.058  0.00  0.00    -0.311 N 
ATOM     32  C   LIG    1       -7.239  -5.387  -4.316  0.00  0.00    +0.252 A 
ATOM     33  O   LIG    1       -6.997  -6.132  -3.364  0.00  0.00    -0.268 OA
ATOM     34  C   LIG    1       -8.623  -5.154  -4.739  0.00  0.00    +0.070 A 
ATOM     35  C   LIG    1       -8.956  -4.340  -5.769  0.00  0.00    +0.007 A 
ATOM     36  C   LIG    1       -7.906  -3.660  -6.505  0.00  0.00    +0.018 A 
ATOM     37  C   LIG    1       -6.641  -3.893  -6.103  0.00  0.00    +0.089 A 
ENDBRANCH  30  31
ENDBRANCH  27  30
ENDBRANCH  23  24
ENDBRANCH   4  23
TORSDOF 10
