REMARK  Name = DB18444
REMARK                            x       y       z     vdW  Elec       q    Type
REMARK                         _______ _______ _______ _____ _____    ______ ____
ROOT
ATOM      1  N   LIG    1       -0.843   0.227  -0.593  0.00  0.00    +0.381 N 
ATOM      2  H   LIG    1       -0.260  -0.145   0.145  0.00  0.00    -0.082 HD
ENDROOT
BRANCH   1   3
ATOM      3  C   LIG    1       -1.843  -0.901  -0.956  0.00  0.00    -0.050 C 
BRANCH   3   4
ATOM      4  C   LIG    1       -2.588  -1.457   0.276  0.00  0.00    +0.141 C 
BRANCH   4   6
ATOM      5  C   LIG    1       -2.296  -2.247   2.501  0.00  0.00    +0.193 C 
ATOM      6  O   LIG    1       -1.682  -1.709   1.341  0.00  0.00    -0.385 OA
ENDBRANCH   4   6
ENDBRANCH   3   4
ENDBRANCH   1   3
BRANCH   1   7
ATOM      7  C   LIG    1        0.095   0.566  -1.780  0.00  0.00    -0.076 C 
BRANCH   7   8
ATOM      8  C   LIG    1        1.285  -0.412  -1.873  0.00  0.00    +0.015 C 
BRANCH   8   9
ATOM      9  CA  LIG    1        2.243  -0.411  -0.635  0.00  0.00    +0.179 C 
BRANCH   9  10
ATOM     10  C   LIG    1        2.343  -1.841   0.019  0.00  0.00    +0.325 C 
ATOM     11  OXT LIG    1        1.310  -2.182   0.639  0.00  0.00    -0.249 OA
BRANCH  10  12
ATOM     12  O   LIG    1        3.406  -2.487  -0.145  0.00  0.00    -0.479 OA
ATOM     13  H   LIG    1        3.499  -3.341   0.231  0.00  0.00    +0.295 HD
ENDBRANCH  10  12
ENDBRANCH   9  10
BRANCH   9  14
ATOM     14  N   LIG    1        3.534   0.181  -0.945  0.00  0.00    -0.316 N 
ATOM     15  H   LIG    1        4.315  -0.459  -0.910  0.00  0.00    +0.148 HD
BRANCH  14  16
ATOM     16  C   LIG    1        3.873   1.537  -1.088  0.00  0.00    +0.130 A 
ATOM     17  C   LIG    1        5.227   1.925  -1.320  0.00  0.00    +0.040 A 
ATOM     18  C   LIG    1        6.319   1.029  -1.480  0.00  0.00    +0.013 A 
ATOM     19  C   LIG    1        7.605   1.522  -1.687  0.00  0.00    +0.001 A 
ATOM     20  C   LIG    1        7.839   2.892  -1.747  0.00  0.00    +0.002 A 
ATOM     21  C   LIG    1        6.792   3.798  -1.605  0.00  0.00    +0.028 A 
ATOM     22  C   LIG    1        5.472   3.333  -1.392  0.00  0.00    +0.076 A 
ATOM     23  N   LIG    1        4.466   4.243  -1.260  0.00  0.00    -0.235 NA
ATOM     24  C   LIG    1        3.220   3.748  -1.065  0.00  0.00    +0.223 A 
ATOM     25  N   LIG    1        2.871   2.445  -0.969  0.00  0.00    -0.220 NA
ENDBRANCH  14  16
ENDBRANCH   9  14
ENDBRANCH   8   9
ENDBRANCH   7   8
ENDBRANCH   1   7
BRANCH   1  26
ATOM     26  C   LIG    1       -1.508   1.500  -0.015  0.00  0.00    -0.079 C 
BRANCH  26  27
ATOM     27  C   LIG    1       -0.561   2.164   1.003  0.00  0.00    -0.019 C 
BRANCH  27  28
ATOM     28  C   LIG    1       -0.455   1.368   2.320  0.00  0.00    +0.000 C 
BRANCH  28  29
ATOM     29  C   LIG    1        0.509   1.985   3.350  0.00  0.00    +0.024 C 
BRANCH  29  30
ATOM     30  C   LIG    1        1.978   1.781   3.013  0.00  0.00    +0.043 C 
ATOM     31  N   LIG    1        2.502   0.549   3.171  0.00  0.00    -0.288 NA
ATOM     32  H   LIG    1        1.893  -0.190   3.493  0.00  0.00    +0.124 HD
ATOM     33  C   LIG    1        3.790   0.241   2.922  0.00  0.00    +0.110 C 
ATOM     34  N   LIG    1        4.228  -1.100   3.096  0.00  0.00    -0.296 NA
ATOM     35  H   LIG    1        3.573  -1.808   3.395  0.00  0.00    +0.124 HD
ATOM     36  C   LIG    1        5.609  -1.528   2.816  0.00  0.00    +0.083 C 
ATOM     37  C   LIG    1        6.276  -0.570   1.795  0.00  0.00    +0.016 C 
ATOM     38  C   LIG    1        6.132   0.918   2.193  0.00  0.00    +0.012 C 
ATOM     39  C   LIG    1        4.663   1.250   2.460  0.00  0.00    +0.018 C 
ATOM     40  C   LIG    1        4.142   2.537   2.264  0.00  0.00    +0.008 C 
ATOM     41  C   LIG    1        2.799   2.807   2.539  0.00  0.00    +0.020 C 
ENDBRANCH  29  30
ENDBRANCH  28  29
ENDBRANCH  27  28
ENDBRANCH  26  27
ENDBRANCH   1  26
TORSDOF 15
