REMARK  Name = DB18203
REMARK                            x       y       z     vdW  Elec       q    Type
REMARK                         _______ _______ _______ _____ _____    ______ ____
ROOT
ATOM      1  N   LIG    1        1.214  -0.307   0.061  0.00  0.00    -0.293 N 
ATOM      2  C   LIG    1        1.996   0.057  -1.024  0.00  0.00    +0.093 A 
ATOM      3  C   LIG    1        1.645   0.532  -2.298  0.00  0.00    +0.166 A 
ATOM      4  F   LIG    1        0.351   0.714  -2.653  0.00  0.00    -0.202 F 
ATOM      5  C   LIG    1        2.681   0.812  -3.192  0.00  0.00    +0.078 A 
ATOM      6 CL   LIG    1        2.313   1.399  -4.775  0.00  0.00    -0.081 Cl
ATOM      7  C   LIG    1        4.015   0.627  -2.838  0.00  0.00    +0.023 A 
ATOM      8  C   LIG    1        4.368   0.157  -1.576  0.00  0.00    +0.013 A 
ATOM      9  C   LIG    1        3.358  -0.136  -0.645  0.00  0.00    +0.018 A 
ATOM     10  C   LIG    1        3.366  -0.624   0.704  0.00  0.00    +0.057 A 
ATOM     11  C   LIG    1        2.042  -0.707   1.095  0.00  0.00    +0.129 A 
ATOM     12 CL   LIG    1        1.404  -1.231   2.612  0.00  0.00    -0.062 Cl
ENDROOT
BRANCH   1  16
ATOM     13  N   LIG    1       -2.261  -0.843   0.125  0.00  0.00    -0.269 N 
ATOM     14  N   LIG    1       -2.241   0.454   0.491  0.00  0.00    -0.178 NA
ATOM     15  C   LIG    1       -0.968   0.783   0.507  0.00  0.00    +0.160 A 
ATOM     16  C   LIG    1       -0.156  -0.294   0.146  0.00  0.00    +0.085 A 
ATOM     17  C   LIG    1       -1.006  -1.353  -0.103  0.00  0.00    +0.134 A 
BRANCH  13  18
ATOM     18  C   LIG    1       -3.535  -1.540  -0.008  0.00  0.00    +0.143 C 
BRANCH  18  20
ATOM     19  C   LIG    1       -5.704  -1.719  -1.355  0.00  0.00    +0.005 C 
ATOM     20  C   LIG    1       -4.393  -0.950  -1.146  0.00  0.00    +0.020 C 
ENDBRANCH  18  20
ENDBRANCH  13  18
ENDBRANCH   1  16
BRANCH  10  21
ATOM     21  S   LIG    1        4.775  -1.055   1.668  0.00  0.00    -0.083 S 
BRANCH  21  22
ATOM     22  C   LIG    1        5.402  -2.400   0.699  0.00  0.00    +0.049 A 
ATOM     23  C   LIG    1        4.644  -3.562   0.494  0.00  0.00    +0.151 A 
ATOM     24  F   LIG    1        3.421  -3.653   1.075  0.00  0.00    -0.203 F 
ATOM     25  C   LIG    1        5.156  -4.626  -0.284  0.00  0.00    +0.095 A 
ATOM     26  C   LIG    1        6.460  -4.493  -0.800  0.00  0.00    +0.018 A 
ATOM     27  C   LIG    1        7.215  -3.344  -0.579  0.00  0.00    +0.002 A 
ATOM     28  C   LIG    1        6.686  -2.298   0.169  0.00  0.00    +0.018 A 
BRANCH  25  29
ATOM     29  C   LIG    1        4.371  -5.892  -0.530  0.00  0.00    +0.340 C 
ATOM     30  O   LIG    1        3.124  -5.815  -0.637  0.00  0.00    -0.245 OA
BRANCH  29  31
ATOM     31  O   LIG    1        5.003  -6.970  -0.643  0.00  0.00    -0.477 OA
ATOM     32  H   LIG    1        4.540  -7.770  -0.796  0.00  0.00    +0.295 HD
ENDBRANCH  29  31
ENDBRANCH  25  29
ENDBRANCH  21  22
ENDBRANCH  10  21
TORSDOF 7
