REMARK  Name = DB18301
REMARK                            x       y       z     vdW  Elec       q    Type
REMARK                         _______ _______ _______ _____ _____    ______ ____
ROOT
ATOM      1  C   LIG    1       -0.790   0.989   0.176  0.00  0.00    +0.282 C 
ATOM      2  N   LIG    1        0.046  -0.059   0.014  0.00  0.00    -0.298 N 
ATOM      3  H   LIG    1       -0.357  -0.941  -0.270  0.00  0.00    +0.150 HD
ATOM      4  O   LIG    1       -0.419   2.125   0.470  0.00  0.00    -0.267 OA
ENDROOT
BRANCH   1   8
ATOM      5  C   LIG    1       -4.704  -1.848  -0.254  0.00  0.00    +0.109 C 
ATOM      6  C   LIG    1       -3.929  -0.556  -0.160  0.00  0.00    +0.194 A 
ATOM      7  O   LIG    1       -2.580  -0.627  -0.073  0.00  0.00    -0.435 OA
ATOM      8  C   LIG    1       -2.186   0.671   0.001  0.00  0.00    +0.217 A 
ATOM      9  C   LIG    1       -3.348   1.453  -0.045  0.00  0.00    +0.125 A 
ATOM     10  N   LIG    1       -4.409   0.663  -0.145  0.00  0.00    -0.213 NA
BRANCH   9  11
ATOM     11  C   LIG    1       -3.507   2.940  -0.005  0.00  0.00    +0.039 A 
ATOM     12  C   LIG    1       -4.425   3.560   0.858  0.00  0.00    +0.133 A 
ATOM     13  F   LIG    1       -5.188   2.824   1.701  0.00  0.00    -0.205 F 
ATOM     14  C   LIG    1       -4.555   4.949   0.866  0.00  0.00    +0.039 A 
ATOM     15  C   LIG    1       -3.775   5.732   0.016  0.00  0.00    +0.003 A 
ATOM     16  C   LIG    1       -2.864   5.125  -0.846  0.00  0.00    +0.001 A 
ATOM     17  C   LIG    1       -2.731   3.736  -0.856  0.00  0.00    +0.013 A 
ENDBRANCH   9  11
ENDBRANCH   1   8
BRANCH   2  18
ATOM     18  C   LIG    1        1.513  -0.072   0.170  0.00  0.00    +0.154 C 
BRANCH  18  19
ATOM     19  C   LIG    1        1.926   0.278   1.606  0.00  0.00    +0.237 C 
ATOM     20  O   LIG    1        2.744   1.170   1.847  0.00  0.00    -0.285 OA
BRANCH  19  21
ATOM     21  C   LIG    1        1.300  -0.581   2.791  0.00  0.00    +0.279 C 
ATOM     22  O   LIG    1        0.550  -1.535   2.591  0.00  0.00    -0.267 OA
ATOM     23  N   LIG    1        1.676  -0.155   4.002  0.00  0.00    -0.323 N 
ATOM     24  H   LIG    1        1.342  -0.623   4.832  0.00  0.00    +0.145 HD
ATOM     25  H   LIG    1        2.293   0.639   4.092  0.00  0.00    +0.145 HD
ENDBRANCH  19  21
ENDBRANCH  18  19
BRANCH  18  26
ATOM     26  C   LIG    1        2.080  -1.437  -0.304  0.00  0.00    +0.065 C 
BRANCH  26  27
ATOM     27  C   LIG    1        3.586  -1.480  -0.507  0.00  0.00    -0.045 A 
ATOM     28  C   LIG    1        4.434  -1.900   0.541  0.00  0.00    +0.004 A 
ATOM     29  C   LIG    1        5.812  -1.844   0.383  0.00  0.00    +0.000 A 
ATOM     30  C   LIG    1        6.362  -1.349  -0.793  0.00  0.00    +0.000 A 
ATOM     31  C   LIG    1        5.540  -0.896  -1.817  0.00  0.00    +0.000 A 
ATOM     32  C   LIG    1        4.159  -0.944  -1.679  0.00  0.00    +0.004 A 
ENDBRANCH  26  27
ENDBRANCH  18  26
ENDBRANCH   2  18
TORSDOF 7
