REMARK  Name = DB18313
REMARK                            x       y       z     vdW  Elec       q    Type
REMARK                         _______ _______ _______ _____ _____    ______ ____
ROOT
ATOM      1  C   LIG    1        1.408  -0.015   0.000  0.00  0.00    +0.092 C 
ATOM      2  C   LIG    1        2.229  -1.092   0.000  0.00  0.00    +0.015 C 
ENDROOT
BRANCH   2   3
ATOM      3  C   LIG    1        3.710  -1.085   0.000  0.00  0.00    -0.025 A 
ATOM      4  C   LIG    1        4.461   0.099   0.000  0.00  0.00    +0.008 A 
ATOM      5  C   LIG    1        5.853   0.051   0.000  0.00  0.00    +0.001 A 
ATOM      6  C   LIG    1        6.502  -1.181   0.000  0.00  0.00    +0.000 A 
ATOM      7  C   LIG    1        5.770  -2.365   0.000  0.00  0.00    +0.001 A 
ATOM      8  C   LIG    1        4.378  -2.315   0.000  0.00  0.00    +0.008 A 
ENDBRANCH   2   3
BRANCH   1   9
ATOM      9  C   LIG    1       -0.144  -0.066   0.000  0.00  0.00    +0.330 C 
ATOM     10  O   LIG    1       -0.683   1.063   0.000  0.00  0.00    -0.246 OA
BRANCH   9  11
ATOM     11  O   LIG    1       -0.678  -1.201   0.000  0.00  0.00    -0.478 OA
ATOM     12  H   LIG    1       -0.687  -1.714  -0.784  0.00  0.00    +0.295 HD
ENDBRANCH   9  11
ENDBRANCH   1   9
TORSDOF 3
