REMARK  Name = DB18244
REMARK                            x       y       z     vdW  Elec       q    Type
REMARK                         _______ _______ _______ _____ _____    ______ ____
ROOT
ATOM      1  C   LIG    1       -0.617  -1.146   0.090  0.00  0.00    +0.083 A 
ATOM      2  C   LIG    1       -0.108   0.173  -0.004  0.00  0.00    +0.084 A 
ATOM      3  C   LIG    1       -1.005   1.255  -0.071  0.00  0.00    +0.180 A 
ATOM      4  F   LIG    1       -0.550   2.531  -0.102  0.00  0.00    -0.201 F 
ATOM      5  C   LIG    1       -2.381   1.033  -0.101  0.00  0.00    +0.160 A 
ATOM      6  F   LIG    1       -3.236   2.078  -0.178  0.00  0.00    -0.202 F 
ATOM      7  C   LIG    1       -2.880  -0.264  -0.044  0.00  0.00    +0.042 A 
ATOM      8  C   LIG    1       -2.006  -1.342   0.055  0.00  0.00    +0.020 A 
ENDROOT
BRANCH   1   9
ATOM      9  C   LIG    1        0.271  -2.347   0.211  0.00  0.00    +0.339 C 
ATOM     10  O   LIG    1        0.922  -2.479   1.273  0.00  0.00    -0.245 OA
BRANCH   9  11
ATOM     11  O   LIG    1        0.293  -3.144  -0.755  0.00  0.00    -0.477 OA
ATOM     12  H   LIG    1        0.436  -4.058  -0.606  0.00  0.00    +0.295 HD
ENDBRANCH   9  11
ENDBRANCH   1   9
BRANCH   2  13
ATOM     13  N   LIG    1        1.277   0.429   0.051  0.00  0.00    -0.310 N 
ATOM     14  H   LIG    1        1.763  -0.010   0.821  0.00  0.00    +0.152 HD
BRANCH  13  15
ATOM     15  C   LIG    1        2.105   1.097  -0.868  0.00  0.00    +0.050 A 
ATOM     16  C   LIG    1        3.462   1.301  -0.567  0.00  0.00    +0.063 A 
ATOM     17 CL   LIG    1        4.154   0.754   0.925  0.00  0.00    -0.082 Cl
ATOM     18  C   LIG    1        4.291   1.959  -1.479  0.00  0.00    +0.036 A 
ATOM     19  C   LIG    1        3.781   2.414  -2.693  0.00  0.00    +0.015 A 
ATOM     20  I   LIG    1        5.030   3.396  -4.053  0.00  0.00    -0.044 I 
ATOM     21  C   LIG    1        2.437   2.213  -3.001  0.00  0.00    +0.016 A 
ATOM     22  C   LIG    1        1.605   1.558  -2.095  0.00  0.00    +0.026 A 
ENDBRANCH  13  15
ENDBRANCH   2  13
TORSDOF 4
