REMARK  Name = DB18108
REMARK                            x       y       z     vdW  Elec       q    Type
REMARK                         _______ _______ _______ _____ _____    ______ ____
ROOT
ATOM      1  C   LIG    1        1.524  -0.016  -0.027  0.00  0.00    -0.042 A 
ATOM      2  C   LIG    1        2.212   0.595   1.031  0.00  0.00    +0.005 A 
ATOM      3  C   LIG    1        3.603   0.615   1.065  0.00  0.00    +0.012 A 
ATOM      4  C   LIG    1        4.347   0.023   0.040  0.00  0.00    +0.017 A 
ATOM      5  C   LIG    1        3.668  -0.589  -1.020  0.00  0.00    +0.012 A 
ATOM      6  C   LIG    1        2.276  -0.608  -1.053  0.00  0.00    +0.005 A 
ENDROOT
BRANCH   4   7
ATOM      7  C   LIG    1        5.847   0.043   0.075  0.00  0.00    +0.139 A 
ATOM      8  N   LIG    1        6.580   0.628   1.088  0.00  0.00    -0.338 N 
ATOM      9  H   LIG    1        6.159   1.087   1.883  0.00  0.00    +0.167 HD
ATOM     10  C   LIG    1        7.913   0.460   0.797  0.00  0.00    +0.066 A 
ATOM     11  C   LIG    1        9.098   0.831   1.439  0.00  0.00    +0.028 A 
ATOM     12  C   LIG    1       10.290   0.465   0.806  0.00  0.00    +0.002 A 
ATOM     13  C   LIG    1       10.301  -0.233  -0.403  0.00  0.00    +0.002 A 
ATOM     14  C   LIG    1        9.114  -0.600  -1.039  0.00  0.00    +0.030 A 
ATOM     15  C   LIG    1        7.901  -0.248  -0.430  0.00  0.00    +0.089 A 
ATOM     16  N   LIG    1        6.619  -0.489  -0.847  0.00  0.00    -0.228 NA
ENDBRANCH   4   7
BRANCH   1  18
ATOM     17  C   LIG    1       -0.549  -0.745   1.235  0.00  0.00    +0.015 C 
ATOM     18  C   LIG    1       -0.026  -0.016  -0.028  0.00  0.00    -0.013 C 
ATOM     19  C   LIG    1       -0.549   1.442  -0.028  0.00  0.00    +0.015 C 
ATOM     20  C   LIG    1       -0.640  -0.729  -1.263  0.00  0.00    +0.015 C 
ENDBRANCH   1  18
TORSDOF 2
