REMARK  Name = DB18537
REMARK                            x       y       z     vdW  Elec       q    Type
REMARK                         _______ _______ _______ _____ _____    ______ ____
ROOT
ATOM      1  C   LIG    1        1.387   0.234  -0.057  0.00  0.00    +0.339 C 
ATOM      2  C   LIG    1        1.663  -1.275   0.074  0.00  0.00    +0.214 C 
ATOM      3  C   LIG    1        3.190  -1.538   0.094  0.00  0.00    +0.180 C 
ATOM      4  C   LIG    1        3.910  -0.808  -1.062  0.00  0.00    +0.177 C 
ATOM      5  C   LIG    1        3.448   0.669  -1.141  0.00  0.00    +0.179 C 
ATOM      6  O   LIG    1        2.021   0.714  -1.216  0.00  0.00    -0.331 OA
ENDROOT
BRANCH   2   7
ATOM      7  O   LIG    1        1.027  -1.816   1.220  0.00  0.00    -0.383 OA
ATOM      8  H   LIG    1        1.601  -1.685   1.979  0.00  0.00    +0.210 HD
ENDBRANCH   2   7
BRANCH   3   9
ATOM      9  O   LIG    1        3.474  -2.927   0.082  0.00  0.00    -0.386 OA
ATOM     10  H   LIG    1        4.386  -3.049  -0.194  0.00  0.00    +0.210 HD
ENDBRANCH   3   9
BRANCH   4  11
ATOM     11  O   LIG    1        5.319  -0.908  -0.940  0.00  0.00    -0.386 OA
ATOM     12  H   LIG    1        5.580  -0.545  -0.090  0.00  0.00    +0.210 HD
ENDBRANCH   4  11
BRANCH   1  13
ATOM     13  O   LIG    1        0.002   0.385  -0.178  0.00  0.00    -0.460 OA
BRANCH  13  23
ATOM     14  C   LIG    1       -4.372   0.828  -0.591  0.00  0.00    +0.044 C 
ATOM     15  C   LIG    1       -4.814   2.015   0.319  0.00  0.00    +0.109 C 
ATOM     16  C   LIG    1       -4.657   1.718   1.833  0.00  0.00    +0.055 C 
ATOM     17  C   LIG    1       -6.238   2.483  -0.047  0.00  0.00    +0.055 C 
ATOM     18  O   LIG    1       -3.990   3.132  -0.055  0.00  0.00    -0.486 OA
ATOM     19  C   LIG    1       -2.618   2.948  -0.065  0.00  0.00    +0.129 A 
ATOM     20  C   LIG    1       -1.875   4.119   0.055  0.00  0.00    +0.049 A 
ATOM     21  C   LIG    1       -0.485   4.065   0.067  0.00  0.00    -0.040 A 
ATOM     22  C   LIG    1        0.151   2.828  -0.025  0.00  0.00    +0.050 A 
ATOM     23  C   LIG    1       -0.589   1.638  -0.146  0.00  0.00    +0.131 A 
ATOM     24  C   LIG    1       -1.997   1.691  -0.218  0.00  0.00    +0.043 A 
ATOM     25  C   LIG    1       -2.887   0.440  -0.335  0.00  0.00    +0.056 C 
ATOM     26  C   LIG    1       -2.492  -0.609  -1.384  0.00  0.00    -0.019 C 
ATOM     27  C   LIG    1       -3.359  -1.472  -1.963  0.00  0.00    -0.076 C 
ATOM     28  C   LIG    1       -2.898  -2.500  -2.982  0.00  0.00    +0.039 C 
ATOM     29  C   LIG    1       -4.866  -1.414  -1.691  0.00  0.00    +0.030 C 
ATOM     30  C   LIG    1       -5.223  -0.461  -0.526  0.00  0.00    +0.012 C 
BRANCH  21  31
ATOM     31  C   LIG    1        0.330   5.343   0.206  0.00  0.00    +0.035 C 
BRANCH  31  32
ATOM     32  C   LIG    1        0.549   5.748   1.675  0.00  0.00    +0.005 C 
BRANCH  32  33
ATOM     33  C   LIG    1        1.357   7.049   1.824  0.00  0.00    +0.000 C 
BRANCH  33  34
ATOM     34  C   LIG    1        1.553   7.468   3.292  0.00  0.00    -0.003 C 
ATOM     35  C   LIG    1        2.352   8.770   3.442  0.00  0.00    +0.004 C 
ENDBRANCH  33  34
ENDBRANCH  32  33
ENDBRANCH  31  32
ENDBRANCH  21  31
ENDBRANCH  13  23
ENDBRANCH   1  13
BRANCH   5  36
ATOM     36  C   LIG    1        4.008   1.439  -2.353  0.00  0.00    +0.197 C 
BRANCH  36  37
ATOM     37  O   LIG    1        3.652   0.776  -3.563  0.00  0.00    -0.346 OA
BRANCH  37  38
ATOM     38  C   LIG    1        3.983   1.466  -4.729  0.00  0.00    +0.282 C 
ATOM     39  C   LIG    1        3.725   0.516  -5.910  0.00  0.00    +0.201 C 
ATOM     40  C   LIG    1        3.964   1.261  -7.248  0.00  0.00    +0.179 C 
ATOM     41  C   LIG    1        3.236   2.625  -7.284  0.00  0.00    +0.177 C 
ATOM     42  C   LIG    1        3.501   3.422  -5.982  0.00  0.00    +0.178 C 
ATOM     43  O   LIG    1        3.159   2.596  -4.863  0.00  0.00    -0.341 OA
BRANCH  39  44
ATOM     44  O   LIG    1        4.534  -0.644  -5.812  0.00  0.00    -0.384 OA
ATOM     45  H   LIG    1        4.265  -1.135  -5.032  0.00  0.00    +0.210 HD
ENDBRANCH  39  44
BRANCH  40  46
ATOM     46  O   LIG    1        3.609   0.455  -8.360  0.00  0.00    -0.386 OA
ATOM     47  H   LIG    1        2.668   0.272  -8.319  0.00  0.00    +0.210 HD
ENDBRANCH  40  46
BRANCH  41  48
ATOM     48  O   LIG    1        3.594   3.371  -8.435  0.00  0.00    -0.386 OA
ATOM     49  H   LIG    1        4.551   3.445  -8.466  0.00  0.00    +0.210 HD
ENDBRANCH  41  48
BRANCH  42  50
ATOM     50  C   LIG    1        2.664   4.716  -5.891  0.00  0.00    +0.190 C 
BRANCH  50  51
ATOM     51  O   LIG    1        3.024   5.469  -4.750  0.00  0.00    -0.392 OA
ATOM     52  H   LIG    1        2.467   6.250  -4.711  0.00  0.00    +0.210 HD
ENDBRANCH  50  51
ENDBRANCH  42  50
ENDBRANCH  37  38
ENDBRANCH  36  37
ENDBRANCH   5  36
TORSDOF 17
