REMARK  Name = DB18003
REMARK                            x       y       z     vdW  Elec       q    Type
REMARK                         _______ _______ _______ _____ _____    ______ ____
ROOT
ATOM      1  N   LIG    1        1.483  -0.085  -0.005  0.00  0.00    -0.307 N 
ATOM      2  H   LIG    1        1.905  -0.793  -0.588  0.00  0.00    +0.149 HD
ATOM      3  C   LIG    1        2.295   0.743   0.681  0.00  0.00    +0.264 C 
ATOM      4  O   LIG    1        1.887   1.642   1.420  0.00  0.00    -0.268 OA
ENDROOT
BRANCH   3   5
ATOM      5  C   LIG    1        3.708   0.513   0.477  0.00  0.00    +0.148 A 
ATOM      6  N   LIG    1        4.646   1.344   0.878  0.00  0.00    -0.166 NA
ATOM      7  N   LIG    1        5.826   0.779   0.564  0.00  0.00    -0.260 N 
ATOM      8  C   LIG    1        5.674  -0.439  -0.069  0.00  0.00    +0.070 A 
ATOM      9  C   LIG    1        4.301  -0.624  -0.102  0.00  0.00    +0.062 A 
BRANCH   8  10
ATOM     10  C   LIG    1        6.782  -1.306  -0.572  0.00  0.00    +0.012 A 
ATOM     11  C   LIG    1        7.017  -2.617  -0.104  0.00  0.00    +0.064 A 
ATOM     12  C   LIG    1        8.069  -3.357  -0.666  0.00  0.00    +0.013 A 
ATOM     13  C   LIG    1        8.878  -2.812  -1.661  0.00  0.00    +0.001 A 
ATOM     14  C   LIG    1        8.645  -1.517  -2.114  0.00  0.00    +0.001 A 
ATOM     15  C   LIG    1        7.601  -0.771  -1.574  0.00  0.00    +0.010 A 
BRANCH  11  16
ATOM     16  C   LIG    1        6.159  -3.248   1.003  0.00  0.00    +0.418 C 
ATOM     17  F   LIG    1        4.966  -3.574   0.507  0.00  0.00    -0.166 F 
ATOM     18  F   LIG    1        5.994  -2.404   2.023  0.00  0.00    -0.166 F 
ATOM     19  F   LIG    1        6.708  -4.362   1.491  0.00  0.00    -0.166 F 
ENDBRANCH  11  16
ENDBRANCH   8  10
BRANCH   7  20
ATOM     20  C   LIG    1        7.079   1.490   0.892  0.00  0.00    +0.108 C 
ATOM     21  C   LIG    1        7.327   2.699  -0.022  0.00  0.00    +0.027 C 
ATOM     22  C   LIG    1        6.684   3.885   0.705  0.00  0.00    +0.002 C 
ATOM     23  C   LIG    1        6.760   3.556   2.205  0.00  0.00    +0.002 C 
ATOM     24  C   LIG    1        7.115   2.062   2.323  0.00  0.00    +0.027 C 
ENDBRANCH   7  20
ENDBRANCH   3   5
BRANCH   1  25
ATOM     25  C   LIG    1        0.015  -0.081   0.044  0.00  0.00    +0.082 C 
BRANCH  25  26
ATOM     26  C   LIG    1       -0.566  -0.722   1.343  0.00  0.00    +0.142 C 
BRANCH  26  27
ATOM     27  C   LIG    1       -0.263  -2.231   1.489  0.00  0.00    +0.306 C 
ATOM     28  O   LIG    1       -1.186  -3.032   1.217  0.00  0.00    -0.251 OA
BRANCH  27  29
ATOM     29  O   LIG    1        0.881  -2.566   1.870  0.00  0.00    -0.481 OA
ATOM     30  H   LIG    1        1.524  -2.834   1.244  0.00  0.00    +0.295 HD
ENDBRANCH  27  29
ENDBRANCH  26  27
ENDBRANCH  25  26
BRANCH  25  31
ATOM     31  C   LIG    1       -0.592  -0.681  -1.248  0.00  0.00    +0.004 C 
BRANCH  31  32
ATOM     32  C   LIG    1       -0.229   0.101  -2.528  0.00  0.00    -0.077 C 
BRANCH  32  33
ATOM     33  N   LIG    1       -0.704  -0.645  -3.800  0.00  0.00    +0.384 N 
ATOM     34  H   LIG    1       -0.372  -1.599  -3.754  0.00  0.00    -0.082 HD
ATOM     35  C   LIG    1       -2.252  -0.677  -3.914  0.00  0.00    -0.002 C 
ATOM     36  C   LIG    1       -2.685  -1.417  -5.201  0.00  0.00    +0.235 C 
ATOM     37  F   LIG    1       -2.357  -2.704  -5.066  0.00  0.00    -0.208 F 
ATOM     38  F   LIG    1       -4.009  -1.350  -5.337  0.00  0.00    -0.208 F 
ATOM     39  C   LIG    1       -2.005  -0.857  -6.466  0.00  0.00    +0.071 C 
ATOM     40  C   LIG    1       -0.476  -0.778  -6.307  0.00  0.00    -0.013 C 
ATOM     41  C   LIG    1       -0.063   0.008  -5.049  0.00  0.00    -0.078 C 
ENDBRANCH  32  33
ENDBRANCH  31  32
ENDBRANCH  25  31
ENDBRANCH   1  25
TORSDOF 11
