REMARK  Name = DB18115
REMARK                            x       y       z     vdW  Elec       q    Type
REMARK                         _______ _______ _______ _____ _____    ______ ____
ROOT
ATOM      1  N   LIG    1        1.923   0.512  -1.081  0.00  0.00    -0.339 N 
ATOM      2  H   LIG    1        1.248   0.259  -1.789  0.00  0.00    +0.146 HD
ENDROOT
BRANCH   1   3
ATOM      3  C   LIG    1        3.253   0.748  -1.471  0.00  0.00    +0.040 A 
ATOM      4  C   LIG    1        3.619   0.666  -2.824  0.00  0.00    +0.070 A 
ATOM      5  C   LIG    1        2.823   0.348  -4.044  0.00  0.00    +0.256 C 
ATOM      6  O   LIG    1        1.622   0.080  -4.106  0.00  0.00    -0.269 OA
ATOM      7  N   LIG    1        3.704   0.416  -5.084  0.00  0.00    -0.222 N 
ATOM      8  C   LIG    1        4.971   0.735  -4.703  0.00  0.00    +0.255 C 
ATOM      9  O   LIG    1        5.960   0.861  -5.426  0.00  0.00    -0.270 OA
ATOM     10  C   LIG    1        4.908   0.897  -3.229  0.00  0.00    +0.051 A 
ATOM     11  C   LIG    1        5.908   1.221  -2.314  0.00  0.00    +0.014 A 
ATOM     12  C   LIG    1        5.574   1.307  -0.961  0.00  0.00    +0.003 A 
ATOM     13  C   LIG    1        4.259   1.073  -0.542  0.00  0.00    +0.024 A 
BRANCH   7  14
ATOM     14  C   LIG    1        3.344   0.158  -6.504  0.00  0.00    +0.171 C 
ATOM     15  C   LIG    1        2.452   1.288  -7.100  0.00  0.00    +0.240 C 
ATOM     16  O   LIG    1        2.325   2.409  -6.607  0.00  0.00    -0.273 OA
ATOM     17  N   LIG    1        1.836   0.956  -8.260  0.00  0.00    -0.255 N 
ATOM     18  H   LIG    1        1.306   1.711  -8.671  0.00  0.00    +0.158 HD
ATOM     19  C   LIG    1        1.784  -0.199  -8.968  0.00  0.00    +0.219 C 
ATOM     20  O   LIG    1        1.187  -0.267 -10.040  0.00  0.00    -0.275 OA
ATOM     21  C   LIG    1        2.536  -1.401  -8.347  0.00  0.00    +0.098 C 
ATOM     22  C   LIG    1        2.731  -1.223  -6.830  0.00  0.00    +0.041 C 
ENDBRANCH   7  14
ENDBRANCH   1   3
BRANCH   1  23
ATOM     23  C   LIG    1        1.486   0.540   0.309  0.00  0.00    +0.139 C 
BRANCH  23  26
ATOM     24  F   LIG    1       -0.429   2.563  -0.352  0.00  0.00    -0.205 F 
ATOM     25  C   LIG    1       -0.901   1.354   0.032  0.00  0.00    +0.128 A 
ATOM     26  C   LIG    1       -0.017   0.323   0.374  0.00  0.00    +0.005 A 
ATOM     27  C   LIG    1       -0.527  -0.914   0.780  0.00  0.00    +0.008 A 
ATOM     28  C   LIG    1       -1.905  -1.127   0.825  0.00  0.00    +0.002 A 
ATOM     29  C   LIG    1       -2.788  -0.105   0.463  0.00  0.00    -0.061 A 
ATOM     30  C   LIG    1       -2.279   1.140   0.080  0.00  0.00    +0.040 A 
BRANCH  29  31
ATOM     31  C   LIG    1       -4.289  -0.338   0.510  0.00  0.00    -0.043 C 
BRANCH  31  32
ATOM     32  N   LIG    1       -4.836  -1.047  -0.746  0.00  0.00    +0.384 N 
ATOM     33  H   LIG    1       -4.377  -1.937  -0.875  0.00  0.00    -0.081 HD
ATOM     34  C   LIG    1       -6.358  -1.183  -0.854  0.00  0.00    -0.061 C 
ATOM     35  C   LIG    1       -6.399  -0.112  -1.959  0.00  0.00    +0.024 C 
ATOM     36  C   LIG    1       -4.869  -0.241  -2.049  0.00  0.00    -0.061 C 
BRANCH  35  37
ATOM     37  N   LIG    1       -7.169  -0.421  -3.166  0.00  0.00    -0.299 NA
ATOM     38  C   LIG    1       -6.898   0.548  -4.238  0.00  0.00    +0.112 C 
ATOM     39  C   LIG    1       -7.765   0.269  -5.485  0.00  0.00    +0.175 C 
ATOM     40  O   LIG    1       -9.141   0.237  -5.124  0.00  0.00    -0.377 OA
ATOM     41  C   LIG    1       -9.426  -0.772  -4.162  0.00  0.00    +0.175 C 
ATOM     42  C   LIG    1       -8.607  -0.524  -2.877  0.00  0.00    +0.112 C 
ENDBRANCH  35  37
ENDBRANCH  31  32
ENDBRANCH  29  31
ENDBRANCH  23  26
ENDBRANCH   1  23
TORSDOF 7
