REMARK  Name = DB18007
REMARK                            x       y       z     vdW  Elec       q    Type
REMARK                         _______ _______ _______ _____ _____    ______ ____
ROOT
ATOM      1  C   LIG    1       -0.679  -4.043   0.293  0.00  0.00    +0.041 C 
ATOM      2  C   LIG    1       -1.965  -3.347  -0.149  0.00  0.00    +0.045 C 
ATOM      3  C   LIG    1       -1.699  -1.877   0.191  0.00  0.00    +0.116 C 
ATOM      4  N   LIG    1       -0.242  -1.737   0.059  0.00  0.00    -0.298 N 
ATOM      5  C   LIG    1        0.373  -0.532   0.177  0.00  0.00    +0.251 C 
ATOM      6  O   LIG    1       -0.277   0.487   0.426  0.00  0.00    -0.272 OA
ATOM      7  C   LIG    1        0.424  -3.041  -0.067  0.00  0.00    +0.114 C 
ENDROOT
BRANCH   5   8
ATOM      8  C   LIG    1        1.917  -0.388  -0.002  0.00  0.00    +0.177 C 
ATOM      9  C   LIG    1        2.326   0.893  -0.768  0.00  0.00    +0.047 C 
ATOM     10  C   LIG    1        3.701   1.244  -0.195  0.00  0.00    -0.067 C 
ATOM     11  N   LIG    1        3.582   0.902   1.303  0.00  0.00    +0.384 N 
ATOM     12  H   LIG    1        3.112   1.684   1.739  0.00  0.00    -0.081 HD
ATOM     13  C   LIG    1        2.636  -0.322   1.367  0.00  0.00    -0.027 C 
ATOM     14  F   LIG    1        2.469  -1.412  -0.663  0.00  0.00    -0.233 F 
BRANCH   9  15
ATOM     15  C   LIG    1        2.174   0.863  -2.294  0.00  0.00    -0.042 A 
ATOM     16  C   LIG    1        1.012   1.373  -2.880  0.00  0.00    +0.007 A 
ATOM     17  C   LIG    1        0.839   1.324  -4.260  0.00  0.00    +0.046 A 
ATOM     18  C   LIG    1        1.832   0.760  -5.077  0.00  0.00    +0.120 A 
ATOM     19  C   LIG    1        2.990   0.253  -4.488  0.00  0.00    +0.046 A 
ATOM     20  C   LIG    1        3.162   0.298  -3.107  0.00  0.00    +0.007 A 
BRANCH  18  21
ATOM     21  O   LIG    1        1.745   0.663  -6.453  0.00  0.00    -0.495 OA
ATOM     22  C   LIG    1        0.574   1.137  -7.110  0.00  0.00    +0.277 C 
ENDBRANCH  18  21
ENDBRANCH   9  15
BRANCH  11  23
ATOM     23  C   LIG    1        4.942   0.694   2.015  0.00  0.00    -0.068 C 
ATOM     24  C   LIG    1        5.872   1.919   2.001  0.00  0.00    -0.015 C 
ATOM     25  C   LIG    1        5.533   2.726   3.261  0.00  0.00    -0.002 C 
ATOM     26  C   LIG    1        4.863   1.744   4.233  0.00  0.00    -0.002 C 
ATOM     27  C   LIG    1        4.831   0.388   3.519  0.00  0.00    -0.015 C 
ENDBRANCH  11  23
ENDBRANCH   5   8
BRANCH   2  28
ATOM     28  C   LIG    1       -3.274  -3.953   0.392  0.00  0.00    -0.021 A 
ATOM     29  C   LIG    1       -4.182  -4.664  -0.428  0.00  0.00    +0.034 A 
ATOM     30  C   LIG    1       -5.346  -5.190   0.156  0.00  0.00    +0.035 A 
ATOM     31  C   LIG    1       -5.604  -5.063   1.524  0.00  0.00    +0.057 A 
ATOM     32  C   LIG    1       -4.684  -4.386   2.324  0.00  0.00    +0.013 A 
ATOM     33  C   LIG    1       -3.535  -3.838   1.763  0.00  0.00    +0.006 A 
BRANCH  29  34
ATOM     34  N   LIG    1       -3.991  -4.766  -1.804  0.00  0.00    -0.330 N 
ATOM     35  C   LIG    1       -4.382  -6.002  -2.517  0.00  0.00    +0.106 C 
ATOM     36  C   LIG    1       -3.761  -6.089  -3.929  0.00  0.00    +0.033 C 
ATOM     37  C   LIG    1       -4.228  -4.870  -4.752  0.00  0.00    +0.101 C 
ATOM     38  C   LIG    1       -3.704  -3.618  -4.022  0.00  0.00    +0.033 C 
ATOM     39  C   LIG    1       -4.328  -3.572  -2.609  0.00  0.00    +0.106 C 
BRANCH  37  40
ATOM     40  C   LIG    1       -3.696  -4.918  -6.211  0.00  0.00    +0.308 C 
ATOM     41  O   LIG    1       -2.483  -5.170  -6.408  0.00  0.00    -0.251 OA
BRANCH  40  42
ATOM     42  O   LIG    1       -4.500  -4.605  -7.118  0.00  0.00    -0.480 OA
ATOM     43  H   LIG    1       -4.224  -4.619  -8.014  0.00  0.00    +0.295 HD
ENDBRANCH  40  42
ENDBRANCH  37  40
ENDBRANCH  29  34
BRANCH  31  44
ATOM     44  C   LIG    1       -6.881  -5.656   2.119  0.00  0.00    +0.417 C 
ATOM     45  F   LIG    1       -7.171  -5.127   3.310  0.00  0.00    -0.166 F 
ATOM     46  F   LIG    1       -6.719  -6.970   2.272  0.00  0.00    -0.166 F 
ATOM     47  F   LIG    1       -7.921  -5.445   1.311  0.00  0.00    -0.166 F 
ENDBRANCH  31  44
ENDBRANCH   2  28
BRANCH   1  48
ATOM     48  C   LIG    1       -0.471  -5.465  -0.266  0.00  0.00    +0.165 C 
BRANCH  48  50
ATOM     49  C   LIG    1       -0.286  -6.709  -2.282  0.00  0.00    +0.193 C 
ATOM     50  O   LIG    1       -0.436  -5.431  -1.687  0.00  0.00    -0.383 OA
ENDBRANCH  48  50
ENDBRANCH   1  48
TORSDOF 11
