REMARK  Name = DB18036
REMARK                            x       y       z     vdW  Elec       q    Type
REMARK                         _______ _______ _______ _____ _____    ______ ____
ROOT
ATOM      1  C   LIG    1       -2.315   5.956  -0.476  0.00  0.00    +0.030 A 
ATOM      2  C   LIG    1       -2.474   4.670  -1.006  0.00  0.00    +0.036 A 
ATOM      3  C   LIG    1       -1.747   3.614  -0.451  0.00  0.00    +0.043 A 
ATOM      4  C   LIG    1       -1.743   2.168  -0.831  0.00  0.00    +0.247 C 
ATOM      5  O   LIG    1       -2.381   1.619  -1.729  0.00  0.00    -0.270 OA
ATOM      6  N   LIG    1       -0.874   1.594   0.033  0.00  0.00    -0.293 N 
ATOM      7  C   LIG    1       -0.241   2.516   0.971  0.00  0.00    +0.144 C 
ATOM      8  C   LIG    1       -0.870   3.823   0.598  0.00  0.00    -0.018 A 
ATOM      9  C   LIG    1       -0.698   5.104   1.122  0.00  0.00    +0.008 A 
ATOM     10  C   LIG    1       -1.420   6.172   0.582  0.00  0.00    +0.023 A 
ENDROOT
BRANCH   1  11
ATOM     11  N   LIG    1       -3.040   7.045  -1.050  0.00  0.00    -0.310 N 
ATOM     12  H   LIG    1       -3.004   7.136  -2.055  0.00  0.00    +0.149 HD
BRANCH  11  13
ATOM     13  C   LIG    1       -3.890   7.878  -0.432  0.00  0.00    +0.184 C 
BRANCH  13  14
ATOM     14  N   LIG    1       -4.229   7.795   0.854  0.00  0.00    -0.294 NA
ATOM     15  H   LIG    1       -3.833   7.066   1.430  0.00  0.00    +0.122 HD
ATOM     16  H   LIG    1       -4.892   8.448   1.245  0.00  0.00    +0.122 HD
ENDBRANCH  13  14
BRANCH  13  17
ATOM     17  N   LIG    1       -4.439   8.847  -1.149  0.00  0.00    -0.294 NA
ATOM     18  H   LIG    1       -4.816   9.662  -0.687  0.00  0.00    +0.122 HD
ATOM     19  H   LIG    1       -4.479   8.771  -2.155  0.00  0.00    +0.122 HD
ENDBRANCH  13  17
ENDBRANCH  11  13
ENDBRANCH   1  11
BRANCH   6  20
ATOM     20  C   LIG    1       -0.522   0.176  -0.035  0.00  0.00    +0.117 C 
BRANCH  20  21
ATOM     21  C   LIG    1        0.778  -0.106  -0.820  0.00  0.00    +0.115 C 
BRANCH  21  22
ATOM     22  C   LIG    1        1.426  -1.457  -0.503  0.00  0.00    +0.215 C 
ATOM     23  N   LIG    1        1.982  -2.103  -1.545  0.00  0.00    -0.308 N 
ATOM     24  H   LIG    1        2.041  -1.611  -2.425  0.00  0.00    +0.149 HD
ATOM     25  O   LIG    1        1.435  -1.892   0.650  0.00  0.00    -0.276 OA
BRANCH  23  26
ATOM     26  C   LIG    1        2.690  -3.394  -1.491  0.00  0.00    +0.115 C 
BRANCH  26  27
ATOM     27  C   LIG    1        1.843  -4.566  -0.973  0.00  0.00    -0.009 A 
ATOM     28  C   LIG    1        0.469  -4.665  -1.240  0.00  0.00    +0.116 A 
ATOM     29  N   LIG    1       -0.307  -5.681  -0.782  0.00  0.00    -0.263 NA
ATOM     30  C   LIG    1        0.287  -6.639  -0.027  0.00  0.00    +0.111 A 
ATOM     31  C   LIG    1        1.645  -6.621   0.292  0.00  0.00    +0.020 A 
ATOM     32  C   LIG    1        2.427  -5.569  -0.188  0.00  0.00    +0.008 A 
ENDBRANCH  26  27
BRANCH  26  33
ATOM     33  C   LIG    1        3.342  -3.775  -2.854  0.00  0.00    +0.147 C 
BRANCH  33  34
ATOM     34  C   LIG    1        4.260  -2.697  -3.482  0.00  0.00    +0.307 C 
ATOM     35  O   LIG    1        4.262  -2.615  -4.731  0.00  0.00    -0.251 OA
BRANCH  34  36
ATOM     36  O   LIG    1        4.974  -1.996  -2.729  0.00  0.00    -0.481 OA
ATOM     37  H   LIG    1        5.535  -1.339  -3.092  0.00  0.00    +0.295 HD
ENDBRANCH  34  36
ENDBRANCH  33  34
ENDBRANCH  26  33
ENDBRANCH  23  26
ENDBRANCH  21  22
ENDBRANCH  20  21
ENDBRANCH   6  20
TORSDOF 12
