REMARK  Name = DB18252
REMARK                            x       y       z     vdW  Elec       q    Type
REMARK                         _______ _______ _______ _____ _____    ______ ____
ROOT
ATOM      1  C   LIG    1        0.014  -0.033   0.341  0.00  0.00    +0.163 C 
ENDROOT
BRANCH   1   3
ATOM      2  C   LIG    1       -1.328  -0.083  -1.755  0.00  0.00    +0.234 C 
ATOM      3  N   LIG    1       -0.388  -0.600  -0.948  0.00  0.00    -0.302 N 
ATOM      4  H   LIG    1        0.098  -1.440  -1.227  0.00  0.00    +0.150 HD
ATOM      5  O   LIG    1       -1.973   0.938  -1.514  0.00  0.00    -0.274 OA
BRANCH   2   6
ATOM      6  C   LIG    1       -1.578  -0.840  -3.068  0.00  0.00    +0.156 C 
ATOM      7  C   LIG    1       -1.049  -0.037  -4.267  0.00  0.00    +0.038 C 
BRANCH   6   9
ATOM      8  C   LIG    1       -3.705  -2.038  -2.609  0.00  0.00    +0.234 C 
ATOM      9  N   LIG    1       -3.007  -1.090  -3.256  0.00  0.00    -0.303 N 
ATOM     10  H   LIG    1       -3.490  -0.446  -3.865  0.00  0.00    +0.149 HD
ATOM     11  O   LIG    1       -3.198  -2.873  -1.860  0.00  0.00    -0.274 OA
BRANCH   8  12
ATOM     12  C   LIG    1       -5.223  -2.040  -2.874  0.00  0.00    +0.163 C 
BRANCH  12  14
ATOM     13  C   LIG    1       -6.162  -3.710  -1.219  0.00  0.00    +0.199 C 
ATOM     14  N   LIG    1       -6.015  -2.462  -1.706  0.00  0.00    -0.305 N 
ATOM     15  H   LIG    1       -6.531  -1.716  -1.263  0.00  0.00    +0.149 HD
ATOM     16  O   LIG    1       -5.589  -4.701  -1.682  0.00  0.00    -0.278 OA
BRANCH  13  18
ATOM     17  C   LIG    1       -8.576  -4.216  -0.544  0.00  0.00    -0.005 C 
ATOM     18  C   LIG    1       -7.168  -3.830  -0.047  0.00  0.00    +0.010 C 
BRANCH  18  19
ATOM     19  N   LIG    1       -6.632  -4.857   0.913  0.00  0.00    +0.385 N 
ATOM     20  H   LIG    1       -7.341  -5.068   1.601  0.00  0.00    -0.089 HD
ATOM     21  H   LIG    1       -6.400  -5.694   0.397  0.00  0.00    -0.089 HD
ATOM     22  H   LIG    1       -5.808  -4.493   1.369  0.00  0.00    -0.089 HD
ENDBRANCH  18  19
ENDBRANCH  13  18
ENDBRANCH  12  14
BRANCH  12  23
ATOM     23  C   LIG    1       -5.562  -2.805  -4.187  0.00  0.00    +0.067 C 
BRANCH  23  24
ATOM     24  C   LIG    1       -7.060  -2.820  -4.485  0.00  0.00    -0.045 A 
ATOM     25  C   LIG    1       -7.785  -4.007  -4.362  0.00  0.00    +0.012 A 
ATOM     26  C   LIG    1       -9.181  -4.028  -4.598  0.00  0.00    -0.018 A 
ATOM     27  C   LIG    1       -9.942  -5.216  -4.463  0.00  0.00    +0.008 A 
ATOM     28  C   LIG    1      -11.314  -5.203  -4.701  0.00  0.00    +0.001 A 
ATOM     29  C   LIG    1      -11.956  -4.026  -5.074  0.00  0.00    +0.001 A 
ATOM     30  C   LIG    1      -11.237  -2.841  -5.215  0.00  0.00    +0.008 A 
ATOM     31  C   LIG    1       -9.840  -2.819  -4.978  0.00  0.00    -0.018 A 
ATOM     32  C   LIG    1       -9.079  -1.632  -5.108  0.00  0.00    +0.009 A 
ATOM     33  C   LIG    1       -7.709  -1.644  -4.861  0.00  0.00    +0.004 A 
ENDBRANCH  23  24
ENDBRANCH  12  23
ENDBRANCH   8  12
ENDBRANCH   6   9
ENDBRANCH   2   6
ENDBRANCH   1   3
BRANCH   1  34
ATOM     34  C   LIG    1        1.546   0.063   0.370  0.00  0.00    +0.234 C 
ATOM     35  N   LIG    1        2.077   0.938  -0.506  0.00  0.00    -0.302 N 
ATOM     36  H   LIG    1        1.436   1.476  -1.071  0.00  0.00    +0.150 HD
ATOM     37  O   LIG    1        2.195  -0.665   1.120  0.00  0.00    -0.274 OA
BRANCH  35  38
ATOM     38  C   LIG    1        3.494   1.186  -0.799  0.00  0.00    +0.163 C 
BRANCH  38  39
ATOM     39  C   LIG    1        4.256   1.810   0.384  0.00  0.00    +0.234 C 
ATOM     40  N   LIG    1        4.669   3.076   0.214  0.00  0.00    -0.302 N 
ATOM     41  H   LIG    1        4.459   3.556  -0.649  0.00  0.00    +0.150 HD
ATOM     42  O   LIG    1        4.471   1.146   1.398  0.00  0.00    -0.274 OA
BRANCH  40  43
ATOM     43  C   LIG    1        5.343   3.872   1.245  0.00  0.00    +0.159 C 
BRANCH  43  44
ATOM     44  C   LIG    1        4.345   4.416   2.290  0.00  0.00    +0.231 C 
ATOM     45  O   LIG    1        3.241   4.833   1.941  0.00  0.00    -0.274 OA
ATOM     46  N   LIG    1        4.759   4.439   3.559  0.00  0.00    -0.328 N 
ATOM     47  H   LIG    1        4.149   4.793   4.282  0.00  0.00    +0.145 HD
ATOM     48  H   LIG    1        5.674   4.092   3.808  0.00  0.00    +0.145 HD
ENDBRANCH  43  44
BRANCH  43  49
ATOM     49  C   LIG    1        6.113   5.026   0.568  0.00  0.00    +0.032 C 
BRANCH  49  50
ATOM     50  C   LIG    1        7.301   4.549  -0.286  0.00  0.00    +0.000 C 
BRANCH  50  51
ATOM     51  C   LIG    1        8.100   5.714  -0.889  0.00  0.00    -0.019 C 
BRANCH  51  52
ATOM     52  C   LIG    1        9.304   5.234  -1.716  0.00  0.00    -0.086 C 
BRANCH  52  53
ATOM     53  N   LIG    1       10.067   6.363  -2.278  0.00  0.00    +0.378 N 
ATOM     54  H   LIG    1        9.467   6.911  -2.878  0.00  0.00    -0.090 HD
ATOM     55  H   LIG    1       10.413   6.945  -1.528  0.00  0.00    -0.090 HD
ATOM     56  H   LIG    1       10.847   6.012  -2.816  0.00  0.00    -0.090 HD
ENDBRANCH  52  53
ENDBRANCH  51  52
ENDBRANCH  50  51
ENDBRANCH  49  50
ENDBRANCH  43  49
ENDBRANCH  40  43
ENDBRANCH  38  39
BRANCH  38  57
ATOM     57  C   LIG    1        4.202  -0.084  -1.332  0.00  0.00    +0.067 C 
BRANCH  57  58
ATOM     58  C   LIG    1        3.620  -0.638  -2.622  0.00  0.00    -0.045 A 
ATOM     59  C   LIG    1        3.937  -0.037  -3.859  0.00  0.00    +0.004 A 
ATOM     60  C   LIG    1        3.330  -0.487  -5.025  0.00  0.00    +0.000 A 
ATOM     61  C   LIG    1        2.392  -1.510  -4.977  0.00  0.00    +0.000 A 
ATOM     62  C   LIG    1        2.041  -2.085  -3.762  0.00  0.00    +0.000 A 
ATOM     63  C   LIG    1        2.636  -1.650  -2.586  0.00  0.00    +0.004 A 
ENDBRANCH  57  58
ENDBRANCH  38  57
ENDBRANCH  35  38
ENDBRANCH   1  34
BRANCH   1  64
ATOM     64  C   LIG    1       -0.574  -0.874   1.499  0.00  0.00    +0.069 C 
BRANCH  64  65
ATOM     65  C   LIG    1       -2.056  -1.112   1.460  0.00  0.00    -0.020 A 
ATOM     66  C   LIG    1       -3.146  -0.145   1.581  0.00  0.00    +0.003 A 
ATOM     67  C   LIG    1       -3.217   1.252   1.796  0.00  0.00    +0.010 A 
ATOM     68  C   LIG    1       -4.457   1.921   1.851  0.00  0.00    +0.001 A 
ATOM     69  C   LIG    1       -5.660   1.208   1.691  0.00  0.00    +0.002 A 
ATOM     70  C   LIG    1       -5.627  -0.182   1.474  0.00  0.00    +0.026 A 
ATOM     71  C   LIG    1       -4.385  -0.838   1.422  0.00  0.00    +0.047 A 
ATOM     72  N   LIG    1       -4.018  -2.152   1.223  0.00  0.00    -0.360 N 
ATOM     73  H   LIG    1       -4.646  -2.922   1.057  0.00  0.00    +0.165 HD
ATOM     74  C   LIG    1       -2.648  -2.307   1.237  0.00  0.00    +0.087 A 
ENDBRANCH  64  65
ENDBRANCH   1  64
TORSDOF 23
