REMARK  Name = DB18634
REMARK                            x       y       z     vdW  Elec       q    Type
REMARK                         _______ _______ _______ _____ _____    ______ ____
ROOT
ATOM      1  CA  ARG A 14        3.706   0.847   0.316  0.00  0.00    +0.159 C 
ENDROOT
BRANCH   1   4
ATOM      2  N   LYS A 15        1.675   0.894   1.681  0.00  0.00    -0.302 N 
ATOM      3  H   LYS A 15        2.238   1.398   2.351  0.00  0.00    +0.150 HD
ATOM      4  C   ARG A 14        2.220   0.504   0.518  0.00  0.00    +0.234 C 
ATOM      5  O   ARG A 14        1.615  -0.100  -0.368  0.00  0.00    -0.274 OA
BRANCH   2   6
ATOM      6  CA  LYS A 15        0.309   0.575   2.102  0.00  0.00    +0.159 C 
BRANCH   6   9
ATOM      7  N   GLN A 16       -0.637   2.162   0.502  0.00  0.00    -0.302 N 
ATOM      8  H   GLN A 16       -0.021   1.708  -0.157  0.00  0.00    +0.150 HD
ATOM      9  C   LYS A 15       -0.649   1.737   1.778  0.00  0.00    +0.234 C 
ATOM     10  O   LYS A 15       -1.367   2.213   2.657  0.00  0.00    -0.274 OA
BRANCH   7  11
ATOM     11  CA  GLN A 16       -1.509   3.192  -0.059  0.00  0.00    +0.159 C 
BRANCH  11  14
ATOM     12  N   MET A 17       -3.918   3.515   0.166  0.00  0.00    -0.302 N 
ATOM     13  H   MET A 17       -3.671   4.423   0.531  0.00  0.00    +0.150 HD
ATOM     14  C   GLN A 16       -2.948   2.670  -0.214  0.00  0.00    +0.234 C 
ATOM     15  O   GLN A 16       -3.140   1.546  -0.680  0.00  0.00    -0.274 OA
BRANCH  12  16
ATOM     16  CA  MET A 17       -5.351   3.233   0.089  0.00  0.00    +0.160 C 
BRANCH  16  19
ATOM     17  N   ALA A 18       -7.085   3.934  -1.475  0.00  0.00    -0.303 N 
ATOM     18  H   ALA A 18       -7.325   2.953  -1.499  0.00  0.00    +0.149 HD
ATOM     19  C   MET A 17       -6.054   4.337  -0.713  0.00  0.00    +0.234 C 
ATOM     20  O   MET A 17       -5.687   5.508  -0.600  0.00  0.00    -0.274 OA
BRANCH  17  21
ATOM     21  CA  ALA A 18       -7.930   4.811  -2.287  0.00  0.00    +0.156 C 
ATOM     22  CB  ALA A 18       -8.234   4.099  -3.617  0.00  0.00    +0.038 C 
BRANCH  21  25
ATOM     23  N   VAL A 19       -9.008   5.867  -0.360  0.00  0.00    -0.302 N 
ATOM     24  H   VAL A 19       -8.064   6.064  -0.059  0.00  0.00    +0.150 HD
ATOM     25  C   ALA A 18       -9.203   5.211  -1.517  0.00  0.00    +0.234 C 
ATOM     26  O   ALA A 18      -10.314   4.922  -1.963  0.00  0.00    -0.274 OA
BRANCH  23  27
ATOM     27  CA  VAL A 19      -10.073   6.350   0.521  0.00  0.00    +0.161 C 
BRANCH  27  30
ATOM     28  N   LYS A 20      -12.130   7.482  -0.174  0.00  0.00    -0.302 N 
ATOM     29  H   LYS A 20      -12.597   6.656   0.171  0.00  0.00    +0.150 HD
ATOM     30  C   VAL A 19      -10.790   7.562  -0.106  0.00  0.00    +0.234 C 
ATOM     31  O   VAL A 19      -10.128   8.525  -0.493  0.00  0.00    -0.274 OA
BRANCH  28  32
ATOM     32  CA  LYS A 20      -13.000   8.540  -0.691  0.00  0.00    +0.159 C 
BRANCH  32  35
ATOM     33  N   LYS A 21      -12.819  10.928  -0.193  0.00  0.00    -0.302 N 
ATOM     34  H   LYS A 21      -12.621  11.028  -1.178  0.00  0.00    +0.150 HD
ATOM     35  C   LYS A 20      -13.076   9.709   0.307  0.00  0.00    +0.234 C 
ATOM     36  O   LYS A 20      -13.348   9.481   1.486  0.00  0.00    -0.274 OA
BRANCH  33  37
ATOM     37  CA  LYS A 21      -12.685  12.147   0.613  0.00  0.00    +0.159 C 
BRANCH  37  40
ATOM     38  N   TYR A 22      -15.068  12.524   0.056  0.00  0.00    -0.302 N 
ATOM     39  H   TYR A 22      -15.045  11.592  -0.331  0.00  0.00    +0.150 HD
ATOM     40  C   LYS A 21      -13.951  13.029   0.610  0.00  0.00    +0.234 C 
ATOM     41  O   LYS A 21      -13.892  14.147   1.122  0.00  0.00    -0.274 OA
BRANCH  38  42
ATOM     42  CA  TYR A 22      -16.365  13.206  -0.007  0.00  0.00    +0.163 C 
BRANCH  42  45
ATOM     43  N   LEU A 23      -17.901  14.369   1.494  0.00  0.00    -0.302 N 
ATOM     44  H   LEU A 23      -18.061  14.979   0.705  0.00  0.00    +0.150 HD
ATOM     45  C   TYR A 22      -17.027  13.355   1.378  0.00  0.00    +0.234 C 
ATOM     46  O   TYR A 22      -16.767  12.555   2.279  0.00  0.00    -0.274 OA
BRANCH  43  47
ATOM     47  CA  LEU A 23      -18.721  14.626   2.676  0.00  0.00    +0.159 C 
BRANCH  47  50
ATOM     48  N   ASN A 24      -19.974  13.000   3.991  0.00  0.00    -0.302 N 
ATOM     49  H   ASN A 24      -19.308  13.219   4.718  0.00  0.00    +0.150 HD
ATOM     50  C   LEU A 23      -19.855  13.595   2.794  0.00  0.00    +0.234 C 
ATOM     51  O   LEU A 23      -20.608  13.405   1.838  0.00  0.00    -0.274 OA
BRANCH  48  52
ATOM     52  CA  ASN A 24      -21.067  12.109   4.381  0.00  0.00    +0.168 C 
BRANCH  52  55
ATOM     53  N   SER A 25      -23.035  13.531   4.162  0.00  0.00    -0.301 N 
ATOM     54  H   SER A 25      -22.933  13.347   3.174  0.00  0.00    +0.150 HD
ATOM     55  C   ASN A 24      -22.169  12.967   5.021  0.00  0.00    +0.234 C 
ATOM     56  O   ASN A 24      -22.185  13.142   6.241  0.00  0.00    -0.274 OA
BRANCH  53  57
ATOM     57  CA  SER A 25      -24.109  14.458   4.523  0.00  0.00    +0.184 C 
BRANCH  57  60
ATOM     58  N   ILE A 26      -25.725  14.574   6.351  0.00  0.00    -0.302 N 
ATOM     59  H   ILE A 26      -25.376  15.513   6.477  0.00  0.00    +0.150 HD
ATOM     60  C   SER A 25      -25.203  13.802   5.382  0.00  0.00    +0.236 C 
ATOM     61  O   SER A 25      -25.564  12.649   5.138  0.00  0.00    -0.274 OA
BRANCH  58  62
ATOM     62  CA  ILE A 26      -26.826  14.182   7.232  0.00  0.00    +0.162 C 
BRANCH  62  63
ATOM     63  C   ILE A 26      -28.166  14.090   6.471  0.00  0.00    +0.234 C 
ATOM     64  N   LEU A 27      -28.978  13.093   6.851  0.00  0.00    -0.302 N 
ATOM     65  H   LEU A 27      -28.684  12.467   7.587  0.00  0.00    +0.150 HD
ATOM     66  O   ILE A 26      -28.429  14.907   5.586  0.00  0.00    -0.274 OA
BRANCH  64  67
ATOM     67  CA  LEU A 27      -30.331  12.876   6.343  0.00  0.00    +0.159 C 
BRANCH  67  68
ATOM     68  C   LEU A 27      -31.322  13.118   7.488  0.00  0.00    +0.234 C 
ATOM     69  N   ASN A 28      -32.404  13.852   7.179  0.00  0.00    -0.300 N 
ATOM     70  H   ASN A 28      -32.522  14.179   6.231  0.00  0.00    +0.150 HD
ATOM     71  O   LEU A 27      -31.092  12.652   8.605  0.00  0.00    -0.274 OA
BRANCH  69  72
ATOM     72  CA  ASN A 28      -33.466  14.256   8.124  0.00  0.00    +0.190 C 
BRANCH  72  73
ATOM     73  C   ASN A 28      -34.895  13.974   7.499  0.00  0.00    +0.326 C 
ATOM     74  OXT ASN A 28      -35.786  14.831   7.708  0.00  0.00    -0.249 OA
BRANCH  73  75
ATOM     75  O   ASN A 28      -35.024  12.861   6.932  0.00  0.00    -0.479 OA
ATOM     76  H   ASN A 28      -35.842  12.627   6.540  0.00  0.00    +0.295 HD
ENDBRANCH  73  75
ENDBRANCH  72  73
BRANCH  72  77
ATOM     77  CB  ASN A 28      -33.271  15.743   8.592  0.00  0.00    +0.129 C 
BRANCH  77  78
ATOM     78  CG  ASN A 28      -31.897  16.059   9.200  0.00  0.00    +0.213 C 
ATOM     79  OD1 ASN A 28      -31.022  16.597   8.524  0.00  0.00    -0.276 OA
ATOM     80  ND2 ASN A 28      -31.707  15.722  10.477  0.00  0.00    -0.329 N 
ATOM     81 HD21 ASN A 28      -30.819  15.900  10.924  0.00  0.00    +0.145 HD
ATOM     82 HD22 ASN A 28      -32.446  15.276  11.001  0.00  0.00    +0.145 HD
ENDBRANCH  77  78
ENDBRANCH  72  77
ENDBRANCH  69  72
ENDBRANCH  67  68
BRANCH  67  83
ATOM     83  CB  LEU A 27      -30.454  11.434   5.801  0.00  0.00    +0.034 C 
BRANCH  83  84
ATOM     84  CG  LEU A 27      -29.535  11.115   4.597  0.00  0.00    -0.015 C 
ATOM     85  CD2 LEU A 27      -29.621   9.621   4.217  0.00  0.00    +0.007 C 
ATOM     86  CD1 LEU A 27      -29.796  12.040   3.389  0.00  0.00    +0.007 C 
ENDBRANCH  83  84
ENDBRANCH  67  83
ENDBRANCH  64  67
ENDBRANCH  62  63
BRANCH  62  87
ATOM     87  CB  ILE A 26      -26.967  15.176   8.427  0.00  0.00    +0.015 C 
ATOM     88  CG2 ILE A 26      -27.304  16.625   8.008  0.00  0.00    +0.010 C 
BRANCH  87  90
ATOM     89  CD1 ILE A 26      -27.867  15.428  10.840  0.00  0.00    +0.004 C 
ATOM     90  CG1 ILE A 26      -27.959  14.675   9.505  0.00  0.00    +0.002 C 
ENDBRANCH  87  90
ENDBRANCH  62  87
ENDBRANCH  58  62
ENDBRANCH  57  60
BRANCH  57  91
ATOM     91  CB  SER A 25      -24.719  15.038   3.232  0.00  0.00    +0.187 C 
BRANCH  91  92
ATOM     92  OG  SER A 25      -23.863  16.015   2.677  0.00  0.00    -0.393 OA
ATOM     93  H   SER A 25      -24.262  16.348   1.871  0.00  0.00    +0.209 HD
ENDBRANCH  91  92
ENDBRANCH  57  91
ENDBRANCH  53  57
ENDBRANCH  52  55
BRANCH  52  94
ATOM     94  CB  ASN A 24      -20.526  11.022   5.344  0.00  0.00    +0.127 C 
BRANCH  94  95
ATOM     95  CG  ASN A 24      -19.513  10.058   4.711  0.00  0.00    +0.213 C 
ATOM     96  OD1 ASN A 24      -19.410   9.946   3.491  0.00  0.00    -0.276 OA
ATOM     97  ND2 ASN A 24      -18.764   9.340   5.552  0.00  0.00    -0.329 N 
ATOM     98 HD21 ASN A 24      -18.083   8.688   5.191  0.00  0.00    +0.145 HD
ATOM     99 HD22 ASN A 24      -18.871   9.444   6.551  0.00  0.00    +0.145 HD
ENDBRANCH  94  95
ENDBRANCH  52  94
ENDBRANCH  48  52
ENDBRANCH  47  50
BRANCH  47 100
ATOM    100  CB  LEU A 23      -19.256  16.078   2.607  0.00  0.00    +0.034 C 
BRANCH 100 101
ATOM    101  CG  LEU A 23      -20.211  16.514   3.749  0.00  0.00    -0.015 C 
ATOM    102  CD2 LEU A 23      -19.577  16.365   5.149  0.00  0.00    +0.007 C 
ATOM    103  CD1 LEU A 23      -20.752  17.938   3.502  0.00  0.00    +0.007 C 
ENDBRANCH 100 101
ENDBRANCH  47 100
ENDBRANCH  43  47
ENDBRANCH  42  45
BRANCH  42 104
ATOM    104  CB  TYR A 22      -17.279  12.458  -1.009  0.00  0.00    +0.067 C 
BRANCH 104 105
ATOM    105  CG  TYR A 22      -18.017  11.222  -0.504  0.00  0.00    -0.045 A 
ATOM    106  CD2 TYR A 22      -19.429  11.197  -0.480  0.00  0.00    +0.007 A 
ATOM    107  CE2 TYR A 22      -20.112  10.053  -0.023  0.00  0.00    +0.045 A 
ATOM    108  CZ  TYR A 22      -19.387   8.925   0.408  0.00  0.00    +0.117 A 
ATOM    109  CE1 TYR A 22      -17.980   8.946   0.393  0.00  0.00    +0.045 A 
ATOM    110  CD1 TYR A 22      -17.299  10.093  -0.059  0.00  0.00    +0.007 A 
BRANCH 108 111
ATOM    111  OH  TYR A 22      -20.048   7.815   0.847  0.00  0.00    -0.507 OA
ATOM    112  HH  TYR A 22      -21.001   7.929   0.861  0.00  0.00    +0.292 HD
ENDBRANCH 108 111
ENDBRANCH 104 105
ENDBRANCH  42 104
ENDBRANCH  38  42
ENDBRANCH  37  40
BRANCH  37 113
ATOM    113  CB  LYS A 21      -11.446  12.934   0.122  0.00  0.00    +0.032 C 
BRANCH 113 114
ATOM    114  CG  LYS A 21      -10.116  12.150   0.147  0.00  0.00    +0.000 C 
BRANCH 114 115
ATOM    115  CD  LYS A 21       -9.759  11.552   1.519  0.00  0.00    -0.019 C 
BRANCH 115 116
ATOM    116  CE  LYS A 21       -8.365  10.907   1.537  0.00  0.00    -0.086 C 
BRANCH 116 117
ATOM    117  NZ  LYS A 21       -8.054  10.325   2.854  0.00  0.00    +0.378 N 
ATOM    118  HZ1 LYS A 21       -8.087  11.049   3.558  0.00  0.00    -0.090 HD
ATOM    119  HZ2 LYS A 21       -8.734   9.611   3.075  0.00  0.00    -0.090 HD
ATOM    120  HZ3 LYS A 21       -7.131   9.916   2.834  0.00  0.00    -0.090 HD
ENDBRANCH 116 117
ENDBRANCH 115 116
ENDBRANCH 114 115
ENDBRANCH 113 114
ENDBRANCH  37 113
ENDBRANCH  33  37
ENDBRANCH  32  35
BRANCH  32 121
ATOM    121  CB  LYS A 20      -14.403   7.969  -0.974  0.00  0.00    +0.032 C 
BRANCH 121 122
ATOM    122  CG  LYS A 20      -14.432   6.836  -2.014  0.00  0.00    +0.000 C 
BRANCH 122 123
ATOM    123  CD  LYS A 20      -15.863   6.353  -2.296  0.00  0.00    -0.019 C 
BRANCH 123 124
ATOM    124  CE  LYS A 20      -15.909   5.202  -3.313  0.00  0.00    -0.086 C 
BRANCH 124 125
ATOM    125  NZ  LYS A 20      -17.289   4.749  -3.562  0.00  0.00    +0.378 N 
ATOM    126  HZ1 LYS A 20      -17.701   4.431  -2.696  0.00  0.00    -0.090 HD
ATOM    127  HZ2 LYS A 20      -17.834   5.515  -3.931  0.00  0.00    -0.090 HD
ATOM    128  HZ3 LYS A 20      -17.282   3.990  -4.229  0.00  0.00    -0.090 HD
ENDBRANCH 124 125
ENDBRANCH 123 124
ENDBRANCH 122 123
ENDBRANCH 121 122
ENDBRANCH  32 121
ENDBRANCH  28  32
ENDBRANCH  27  30
BRANCH  27 129
ATOM    129  CB  VAL A 19       -9.504   6.758   1.913  0.00  0.00    +0.012 C 
ATOM    130  CG2 VAL A 19      -10.523   7.439   2.853  0.00  0.00    +0.009 C 
ATOM    131  CG1 VAL A 19       -8.877   5.548   2.630  0.00  0.00    +0.009 C 
ENDBRANCH  27 129
ENDBRANCH  23  27
ENDBRANCH  21  25
ENDBRANCH  17  21
ENDBRANCH  16  19
BRANCH  16 132
ATOM    132  CB  MET A 17       -5.939   3.147   1.514  0.00  0.00    +0.042 C 
BRANCH 132 133
ATOM    133  CG  MET A 17       -5.352   2.012   2.371  0.00  0.00    +0.071 C 
BRANCH 133 134
ATOM    134  SD  MET A 17       -6.007   1.918   4.060  0.00  0.00    -0.164 S 
ATOM    135  CE  MET A 17       -7.700   1.357   3.738  0.00  0.00    +0.084 C 
ENDBRANCH 133 134
ENDBRANCH 132 133
ENDBRANCH  16 132
ENDBRANCH  12  16
ENDBRANCH  11  14
BRANCH  11 136
ATOM    136  CB  GLN A 16       -0.904   3.655  -1.402  0.00  0.00    +0.041 C 
BRANCH 136 137
ATOM    137  CG  GLN A 16       -1.687   4.774  -2.122  0.00  0.00    +0.098 C 
BRANCH 137 138
ATOM    138  CD  GLN A 16       -1.013   5.255  -3.412  0.00  0.00    +0.211 C 
ATOM    139  OE1 GLN A 16        0.137   4.924  -3.699  0.00  0.00    -0.276 OA
ATOM    140  NE2 GLN A 16       -1.732   6.061  -4.196  0.00  0.00    -0.329 N 
ATOM    141 HE21 GLN A 16       -1.343   6.409  -5.061  0.00  0.00    +0.145 HD
ATOM    142 HE22 GLN A 16       -2.674   6.319  -3.938  0.00  0.00    +0.145 HD
ENDBRANCH 137 138
ENDBRANCH 136 137
ENDBRANCH  11 136
ENDBRANCH   7  11
ENDBRANCH   6   9
BRANCH   6 143
ATOM    143  CB  LYS A 15        0.318   0.182   3.599  0.00  0.00    +0.032 C 
BRANCH 143 144
ATOM    144  CG  LYS A 15        1.280  -0.969   3.969  0.00  0.00    +0.000 C 
BRANCH 144 145
ATOM    145  CD  LYS A 15        1.077  -2.263   3.152  0.00  0.00    -0.019 C 
BRANCH 145 146
ATOM    146  CE  LYS A 15        1.996  -3.426   3.572  0.00  0.00    -0.086 C 
BRANCH 146 147
ATOM    147  NZ  LYS A 15        1.656  -3.969   4.899  0.00  0.00    +0.378 N 
ATOM    148  HZ1 LYS A 15        1.760  -3.245   5.596  0.00  0.00    -0.090 HD
ATOM    149  HZ2 LYS A 15        0.700  -4.295   4.895  0.00  0.00    -0.090 HD
ATOM    150  HZ3 LYS A 15        2.273  -4.737   5.118  0.00  0.00    -0.090 HD
ENDBRANCH 146 147
ENDBRANCH 145 146
ENDBRANCH 144 145
ENDBRANCH 143 144
ENDBRANCH   6 143
ENDBRANCH   2   6
ENDBRANCH   1   4
BRANCH   1 151
ATOM    151  N   ARG A 14        4.455  -0.369   0.001  0.00  0.00    -0.302 N 
ATOM    152  H   ARG A 14        4.687  -0.505  -0.973  0.00  0.00    +0.150 HD
ATOM    153  C   LEU A 13        4.721  -1.344   0.887  0.00  0.00    +0.234 C 
ATOM    154  O   LEU A 13        4.471  -1.276   2.092  0.00  0.00    -0.274 OA
BRANCH 153 155
ATOM    155  CA  LEU A 13        5.309  -2.635   0.300  0.00  0.00    +0.159 C 
BRANCH 155 156
ATOM    156  N   LEU A 13        6.193  -3.285   1.263  0.00  0.00    -0.302 N 
ATOM    157  H   LEU A 13        5.755  -3.962   1.871  0.00  0.00    +0.150 HD
ATOM    158  C   ARG A 12        7.519  -3.096   1.350  0.00  0.00    +0.234 C 
ATOM    159  O   ARG A 12        8.157  -2.307   0.652  0.00  0.00    -0.274 OA
BRANCH 158 160
ATOM    160  CA  ARG A 12        8.239  -3.997   2.368  0.00  0.00    +0.159 C 
BRANCH 160 161
ATOM    161  N   ARG A 12        8.325  -5.360   1.848  0.00  0.00    -0.302 N 
ATOM    162  H   ARG A 12        9.184  -5.590   1.368  0.00  0.00    +0.150 HD
ATOM    163  C   THR A 11        7.405  -6.322   2.024  0.00  0.00    +0.236 C 
ATOM    164  O   THR A 11        6.333  -6.149   2.607  0.00  0.00    -0.274 OA
BRANCH 163 165
ATOM    165  CA  THR A 11        7.815  -7.718   1.499  0.00  0.00    +0.187 C 
BRANCH 165 166
ATOM    166  N   THR A 11        8.305  -8.552   2.600  0.00  0.00    -0.300 N 
ATOM    167  H   THR A 11        7.686  -9.294   2.894  0.00  0.00    +0.150 HD
ATOM    168  C   TYR A 10        9.451  -8.339   3.269  0.00  0.00    +0.234 C 
ATOM    169  O   TYR A 10       10.264  -7.457   2.985  0.00  0.00    -0.274 OA
BRANCH 168 170
ATOM    170  CA  TYR A 10        9.692  -9.247   4.494  0.00  0.00    +0.163 C 
BRANCH 170 171
ATOM    171  N   TYR A 10       11.094  -9.256   4.917  0.00  0.00    -0.302 N 
ATOM    172  H   TYR A 10       11.282  -8.796   5.796  0.00  0.00    +0.150 HD
ATOM    173  C   ASN A  9       12.127  -9.742   4.211  0.00  0.00    +0.234 C 
ATOM    174  O   ASN A  9       12.024 -10.313   3.124  0.00  0.00    -0.274 OA
BRANCH 173 175
ATOM    175  CA  ASN A  9       13.522  -9.491   4.818  0.00  0.00    +0.168 C 
BRANCH 175 176
ATOM    176  N   ASN A  9       14.410 -10.633   4.602  0.00  0.00    -0.302 N 
ATOM    177  H   ASN A  9       15.133 -10.505   3.909  0.00  0.00    +0.150 HD
ATOM    178  C   ASP A  8       14.281 -11.827   5.205  0.00  0.00    +0.234 C 
ATOM    179  O   ASP A  8       13.431 -12.089   6.057  0.00  0.00    -0.274 OA
BRANCH 178 180
ATOM    180  CA  ASP A  8       15.254 -12.927   4.737  0.00  0.00    +0.169 C 
BRANCH 180 181
ATOM    181  N   ASP A  8       15.783 -13.681   5.874  0.00  0.00    -0.302 N 
ATOM    182  H   ASP A  8       15.391 -14.602   6.007  0.00  0.00    +0.150 HD
ATOM    183  C   THR A  7       16.686 -13.222   6.756  0.00  0.00    +0.236 C 
ATOM    184  O   THR A  7       17.230 -12.119   6.691  0.00  0.00    -0.274 OA
BRANCH 183 185
ATOM    185  CA  THR A  7       17.015 -14.170   7.926  0.00  0.00    +0.187 C 
BRANCH 185 186
ATOM    186  N   THR A  7       18.460 -14.372   8.055  0.00  0.00    -0.300 N 
ATOM    187  H   THR A  7       18.895 -13.929   8.851  0.00  0.00    +0.150 HD
ATOM    188  C   PHE A  6       19.221 -15.067   7.190  0.00  0.00    +0.234 C 
ATOM    189  O   PHE A  6       18.772 -15.638   6.195  0.00  0.00    -0.274 OA
BRANCH 188 190
ATOM    190  CA  PHE A  6       20.730 -15.128   7.496  0.00  0.00    +0.163 C 
BRANCH 190 191
ATOM    191  N   PHE A  6       20.954 -15.333   8.930  0.00  0.00    -0.302 N 
ATOM    192  H   PHE A  6       20.364 -16.023   9.371  0.00  0.00    +0.150 HD
ATOM    193  C   VAL A  5       21.840 -14.652   9.676  0.00  0.00    +0.234 C 
ATOM    194  O   VAL A  5       22.608 -13.793   9.240  0.00  0.00    -0.274 OA
BRANCH 193 195
ATOM    195  CA  VAL A  5       21.842 -14.979  11.183  0.00  0.00    +0.161 C 
BRANCH 195 196
ATOM    196  N   VAL A  5       23.211 -15.126  11.679  0.00  0.00    -0.302 N 
ATOM    197  H   VAL A  5       23.585 -14.331  12.176  0.00  0.00    +0.150 HD
ATOM    198  C   ALA A  4       23.986 -16.205  11.486  0.00  0.00    +0.234 C 
ATOM    199  O   ALA A  4       23.627 -17.220  10.888  0.00  0.00    -0.274 OA
BRANCH 198 200
ATOM    200  CA  ALA A  4       25.412 -16.105  12.057  0.00  0.00    +0.156 C 
ATOM    201  CB  ALA A  4       26.330 -15.346  11.086  0.00  0.00    +0.038 C 
BRANCH 200 202
ATOM    202  N   ALA A  4       26.015 -17.409  12.336  0.00  0.00    -0.303 N 
ATOM    203  H   ALA A  4       26.793 -17.664  11.745  0.00  0.00    +0.149 HD
ATOM    204  C   ASP A  3       25.600 -18.273  13.277  0.00  0.00    +0.234 C 
ATOM    205  O   ASP A  3       24.658 -18.064  14.045  0.00  0.00    -0.274 OA
BRANCH 204 206
ATOM    206  CA  ASP A  3       26.369 -19.602  13.337  0.00  0.00    +0.169 C 
BRANCH 206 207
ATOM    207  N   ASP A  3       26.222 -20.204  14.667  0.00  0.00    -0.302 N 
ATOM    208  H   ASP A  3       25.283 -20.471  14.924  0.00  0.00    +0.150 HD
ATOM    209  C   SER A  2       27.219 -20.375  15.549  0.00  0.00    +0.236 C 
ATOM    210  O   SER A  2       28.394 -20.067  15.343  0.00  0.00    -0.274 OA
BRANCH 209 211
ATOM    211  CA  SER A  2       26.813 -20.980  16.901  0.00  0.00    +0.184 C 
BRANCH 211 212
ATOM    212  N   SER A  2       27.848 -21.913  17.338  0.00  0.00    -0.301 N 
ATOM    213  H   SER A  2       28.762 -21.770  16.931  0.00  0.00    +0.150 HD
ATOM    214  C   HIS A  1       27.652 -22.948  18.171  0.00  0.00    +0.231 C 
ATOM    215  O   HIS A  1       26.569 -23.212  18.698  0.00  0.00    -0.274 OA
BRANCH 214 216
ATOM    216  CA  HIS A  1       28.877 -23.865  18.393  0.00  0.00    +0.144 C 
BRANCH 216 217
ATOM    217  N   HIS A  1       29.039 -24.068  19.842  0.00  0.00    -0.320 NA
ATOM    218  H1  HIS A  1       29.317 -23.206  20.289  0.00  0.00    +0.119 HD
ATOM    219  H2  HIS A  1       29.790 -24.720  20.021  0.00  0.00    +0.119 HD
ENDBRANCH 216 217
BRANCH 216 220
ATOM    220  CB  HIS A  1       28.755 -25.206  17.629  0.00  0.00    +0.084 C 
BRANCH 220 221
ATOM    221  CG  HIS A  1       28.557 -25.089  16.133  0.00  0.00    +0.061 A 
ATOM    222  ND1 HIS A  1       29.541 -24.575  15.281  0.00  0.00    -0.241 NA
ATOM    223  CE1 HIS A  1       28.997 -24.613  14.072  0.00  0.00    +0.196 A 
ATOM    224  NE2 HIS A  1       27.756 -25.103  14.073  0.00  0.00    -0.351 N 
ATOM    225  HE2 HIS A  1       27.154 -25.219  13.270  0.00  0.00    +0.166 HD
ATOM    226  CD2 HIS A  1       27.446 -25.417  15.383  0.00  0.00    +0.107 A 
ENDBRANCH 220 221
ENDBRANCH 216 220
ENDBRANCH 214 216
ENDBRANCH 211 212
BRANCH 211 227
ATOM    227  CB  SER A  2       26.580 -19.909  17.991  0.00  0.00    +0.187 C 
BRANCH 227 228
ATOM    228  OG  SER A  2       25.561 -18.998  17.627  0.00  0.00    -0.393 OA
ATOM    229  H   SER A  2       24.716 -19.453  17.668  0.00  0.00    +0.209 HD
ENDBRANCH 227 228
ENDBRANCH 211 227
ENDBRANCH 209 211
ENDBRANCH 206 207
BRANCH 206 230
ATOM    230  CB  ASP A  3       25.855 -20.555  12.226  0.00  0.00    +0.152 C 
BRANCH 230 231
ATOM    231  CG  ASP A  3       26.324 -22.006  12.373  0.00  0.00    +0.307 C 
ATOM    232  OD2 ASP A  3       25.607 -22.921  12.772  0.00  0.00    -0.251 OA
BRANCH 231 233
ATOM    233  OD1 ASP A  3       27.632 -22.161  12.020  0.00  0.00    -0.481 OA
ATOM    234  HD1 ASP A  3       27.937 -23.067  12.114  0.00  0.00    +0.295 HD
ENDBRANCH 231 233
ENDBRANCH 230 231
ENDBRANCH 206 230
ENDBRANCH 204 206
ENDBRANCH 200 202
ENDBRANCH 198 200
ENDBRANCH 195 196
BRANCH 195 235
ATOM    235  CB  VAL A  5       21.098 -13.845  11.951  0.00  0.00    +0.012 C 
ATOM    236  CG2 VAL A  5       19.705 -13.487  11.389  0.00  0.00    +0.009 C 
ATOM    237  CG1 VAL A  5       20.966 -14.187  13.447  0.00  0.00    +0.009 C 
ENDBRANCH 195 235
ENDBRANCH 193 195
ENDBRANCH 190 191
BRANCH 190 238
ATOM    238  CB  PHE A  6       21.473 -16.205   6.668  0.00  0.00    +0.067 C 
BRANCH 238 239
ATOM    239  CG  PHE A  6       22.987 -16.182   6.786  0.00  0.00    -0.045 A 
ATOM    240  CD2 PHE A  6       23.647 -17.075   7.657  0.00  0.00    +0.004 A 
ATOM    241  CE2 PHE A  6       25.023 -16.989   7.828  0.00  0.00    +0.000 A 
ATOM    242  CZ  PHE A  6       25.750 -16.010   7.164  0.00  0.00    +0.000 A 
ATOM    243  CE1 PHE A  6       25.110 -15.105   6.327  0.00  0.00    +0.000 A 
ATOM    244  CD1 PHE A  6       23.736 -15.176   6.140  0.00  0.00    +0.004 A 
ENDBRANCH 238 239
ENDBRANCH 190 238
ENDBRANCH 188 190
ENDBRANCH 185 186
BRANCH 185 245
ATOM    245  CB  THR A  7       16.423 -13.571   9.232  0.00  0.00    +0.141 C 
ATOM    246  CG2 THR A  7       14.938 -13.160   9.175  0.00  0.00    +0.040 C 
BRANCH 245 247
ATOM    247  OG1 THR A  7       16.557 -14.526  10.266  0.00  0.00    -0.390 OA
ATOM    248  HG1 THR A  7       15.943 -15.245  10.100  0.00  0.00    +0.210 HD
ENDBRANCH 245 247
ENDBRANCH 185 245
ENDBRANCH 183 185
ENDBRANCH 180 181
BRANCH 180 249
ATOM    249  CB  ASP A  8       14.631 -13.945   3.746  0.00  0.00    +0.152 C 
BRANCH 249 250
ATOM    250  CG  ASP A  8       13.824 -13.328   2.597  0.00  0.00    +0.307 C 
ATOM    251  OD2 ASP A  8       12.607 -13.447   2.475  0.00  0.00    -0.251 OA
BRANCH 250 252
ATOM    252  OD1 ASP A  8       14.611 -12.626   1.732  0.00  0.00    -0.481 OA
ATOM    253  HD1 ASP A  8       14.106 -12.233   1.016  0.00  0.00    +0.295 HD
ENDBRANCH 250 252
ENDBRANCH 249 250
ENDBRANCH 180 249
ENDBRANCH 178 180
ENDBRANCH 175 176
BRANCH 175 254
ATOM    254  CB  ASN A  9       14.172  -8.227   4.202  0.00  0.00    +0.127 C 
BRANCH 254 255
ATOM    255  CG  ASN A  9       13.506  -6.908   4.623  0.00  0.00    +0.213 C 
ATOM    256  OD1 ASN A  9       13.237  -6.687   5.802  0.00  0.00    -0.276 OA
ATOM    257  ND2 ASN A  9       13.249  -6.021   3.658  0.00  0.00    -0.329 N 
ATOM    258 HD21 ASN A  9       12.812  -5.139   3.882  0.00  0.00    +0.145 HD
ATOM    259 HD22 ASN A  9       13.477  -6.231   2.697  0.00  0.00    +0.145 HD
ENDBRANCH 254 255
ENDBRANCH 175 254
ENDBRANCH 173 175
ENDBRANCH 170 171
BRANCH 170 260
ATOM    260  CB  TYR A 10        8.825  -8.809   5.701  0.00  0.00    +0.067 C 
BRANCH 260 261
ATOM    261  CG  TYR A 10        8.893  -7.335   6.084  0.00  0.00    -0.045 A 
ATOM    262  CD2 TYR A 10        7.854  -6.455   5.713  0.00  0.00    +0.007 A 
ATOM    263  CE2 TYR A 10        7.926  -5.089   6.048  0.00  0.00    +0.045 A 
ATOM    264  CZ  TYR A 10        9.037  -4.596   6.759  0.00  0.00    +0.117 A 
ATOM    265  CE1 TYR A 10       10.073  -5.472   7.138  0.00  0.00    +0.045 A 
ATOM    266  CD1 TYR A 10        9.999  -6.838   6.805  0.00  0.00    +0.007 A 
BRANCH 264 267
ATOM    267  OH  TYR A 10        9.110  -3.274   7.085  0.00  0.00    -0.507 OA
ATOM    268  HH  TYR A 10        8.326  -2.778   6.836  0.00  0.00    +0.292 HD
ENDBRANCH 264 267
ENDBRANCH 260 261
ENDBRANCH 170 260
ENDBRANCH 168 170
ENDBRANCH 165 166
BRANCH 165 269
ATOM    269  CB  THR A 11        6.630  -8.396   0.752  0.00  0.00    +0.141 C 
ATOM    270  CG2 THR A 11        7.014  -9.746   0.127  0.00  0.00    +0.040 C 
BRANCH 269 271
ATOM    271  OG1 THR A 11        5.490  -8.600   1.568  0.00  0.00    -0.390 OA
ATOM    272  HG1 THR A 11        5.186  -7.745   1.882  0.00  0.00    +0.210 HD
ENDBRANCH 269 271
ENDBRANCH 165 269
ENDBRANCH 163 165
ENDBRANCH 160 161
BRANCH 160 273
ATOM    273  CB  ARG A 12        9.669  -3.544   2.738  0.00  0.00    +0.033 C 
BRANCH 273 274
ATOM    274  CG  ARG A 12        9.753  -2.176   3.446  0.00  0.00    +0.017 C 
BRANCH 274 275
ATOM    275  CD  ARG A 12       11.184  -1.779   3.857  0.00  0.00    +0.084 C 
BRANCH 275 276
ATOM    276  NE  ARG A 12       11.705  -2.595   4.970  0.00  0.00    -0.283 NA
ATOM    277  HE  ARG A 12       11.043  -3.239   5.380  0.00  0.00    +0.125 HD
BRANCH 276 278
ATOM    278  CZ  ARG A 12       12.941  -2.551   5.504  0.00  0.00    +0.167 C 
BRANCH 278 279
ATOM    279  NH2 ARG A 12       13.232  -3.369   6.523  0.00  0.00    -0.297 NA
ATOM    280 HH21 ARG A 12       12.534  -4.010   6.874  0.00  0.00    +0.121 HD
ATOM    281 HH22 ARG A 12       14.152  -3.359   6.940  0.00  0.00    +0.121 HD
ENDBRANCH 278 279
BRANCH 278 282
ATOM    282  NH1 ARG A 12       13.892  -1.717   5.051  0.00  0.00    -0.297 NA
ATOM    283 HH11 ARG A 12       13.691  -1.087   4.287  0.00  0.00    +0.121 HD
ATOM    284 HH12 ARG A 12       14.808  -1.709   5.476  0.00  0.00    +0.121 HD
ENDBRANCH 278 282
ENDBRANCH 276 278
ENDBRANCH 275 276
ENDBRANCH 274 275
ENDBRANCH 273 274
ENDBRANCH 160 273
ENDBRANCH 158 160
ENDBRANCH 155 156
BRANCH 155 285
ATOM    285  CB  LEU A 13        4.166  -3.614  -0.060  0.00  0.00    +0.034 C 
BRANCH 285 286
ATOM    286  CG  LEU A 13        4.623  -4.941  -0.713  0.00  0.00    -0.015 C 
ATOM    287  CD2 LEU A 13        3.439  -5.918  -0.872  0.00  0.00    +0.007 C 
ATOM    288  CD1 LEU A 13        5.383  -4.718  -2.037  0.00  0.00    +0.007 C 
ENDBRANCH 285 286
ENDBRANCH 155 285
ENDBRANCH 153 155
ENDBRANCH   1 151
BRANCH   1 289
ATOM    289  CB  ARG A 14        3.917   1.886  -0.807  0.00  0.00    +0.033 C 
BRANCH 289 290
ATOM    290  CG  ARG A 14        3.230   3.241  -0.551  0.00  0.00    +0.017 C 
BRANCH 290 291
ATOM    291  CD  ARG A 14        3.488   4.259  -1.673  0.00  0.00    +0.084 C 
BRANCH 291 292
ATOM    292  NE  ARG A 14        2.701   5.490  -1.483  0.00  0.00    -0.283 NA
ATOM    293  HE  ARG A 14        2.173   5.537  -0.623  0.00  0.00    +0.125 HD
BRANCH 292 294
ATOM    294  CZ  ARG A 14        2.611   6.539  -2.325  0.00  0.00    +0.167 C 
BRANCH 294 295
ATOM    295  NH2 ARG A 14        1.832   7.573  -1.982  0.00  0.00    -0.297 NA
ATOM    296 HH21 ARG A 14        1.325   7.560  -1.108  0.00  0.00    +0.121 HD
ATOM    297 HH22 ARG A 14        1.743   8.369  -2.598  0.00  0.00    +0.121 HD
ENDBRANCH 294 295
BRANCH 294 298
ATOM    298  NH1 ARG A 14        3.273   6.585  -3.493  0.00  0.00    -0.297 NA
ATOM    299 HH11 ARG A 14        3.863   5.814  -3.772  0.00  0.00    +0.121 HD
ATOM    300 HH12 ARG A 14        3.180   7.386  -4.102  0.00  0.00    +0.121 HD
ENDBRANCH 294 298
ENDBRANCH 292 294
ENDBRANCH 291 292
ENDBRANCH 290 291
ENDBRANCH 289 290
ENDBRANCH   1 289
TORSDOF 132
