REMARK  Name = DB18511
REMARK                            x       y       z     vdW  Elec       q    Type
REMARK                         _______ _______ _______ _____ _____    ______ ____
ROOT
ATOM      1  C   LIG    1        1.175  -0.541  -0.325  0.00  0.00    +0.141 C 
ENDROOT
BRANCH   1   3
ATOM      2  C   LIG    1       -1.023   0.658   0.105  0.00  0.00    -0.002 C 
ATOM      3  C   LIG    1       -0.340  -0.419  -0.328  0.00  0.00    +0.004 C 
BRANCH   2   5
ATOM      4  C   LIG    1       -3.308  -0.244   0.430  0.00  0.00    -0.000 C 
ATOM      5  C   LIG    1       -2.471   0.765   0.124  0.00  0.00    -0.000 C 
BRANCH   4   7
ATOM      6  C   LIG    1       -5.644  -1.053   0.758  0.00  0.00    +0.004 C 
ATOM      7  C   LIG    1       -4.754  -0.098   0.420  0.00  0.00    -0.002 C 
BRANCH   6   8
ATOM      8  C   LIG    1       -5.349  -2.471   1.234  0.00  0.00    +0.141 C 
BRANCH   8   9
ATOM      9  O   LIG    1       -6.169  -2.719   2.358  0.00  0.00    -0.387 OA
ATOM     10  H   LIG    1       -6.099  -3.649   2.586  0.00  0.00    +0.210 HD
ENDBRANCH   8   9
BRANCH   8  11
ATOM     11  C   LIG    1       -5.617  -3.552   0.169  0.00  0.00    +0.062 C 
BRANCH  11  13
ATOM     12  C   LIG    1       -5.023  -3.024  -2.275  0.00  0.00    -0.031 C 
ATOM     13  C   LIG    1       -4.700  -3.462  -1.043  0.00  0.00    -0.028 C 
BRANCH  12  15
ATOM     14  C   LIG    1       -7.128  -3.437  -3.655  0.00  0.00    +0.008 C 
ATOM     15  C   LIG    1       -6.366  -2.479  -2.732  0.00  0.00    +0.023 C 
ENDBRANCH  12  15
ENDBRANCH  11  13
ENDBRANCH   8  11
ENDBRANCH   6   8
ENDBRANCH   4   7
ENDBRANCH   2   5
ENDBRANCH   1   3
BRANCH   1  16
ATOM     16  O   LIG    1        1.590  -0.707  -1.665  0.00  0.00    -0.387 OA
ATOM     17  H   LIG    1        1.324   0.069  -2.164  0.00  0.00    +0.210 HD
ENDBRANCH   1  16
BRANCH   1  18
ATOM     18  C   LIG    1        1.707  -1.725   0.508  0.00  0.00    +0.062 C 
BRANCH  18  19
ATOM     19  C   LIG    1        1.326  -1.671   1.981  0.00  0.00    -0.028 C 
ATOM     20  C   LIG    1        2.097  -1.272   3.011  0.00  0.00    -0.027 C 
BRANCH  20  21
ATOM     21  C   LIG    1        3.520  -0.745   2.949  0.00  0.00    +0.053 C 
BRANCH  21  22
ATOM     22  C   LIG    1        3.645   0.681   3.455  0.00  0.00    -0.027 C 
ATOM     23  C   LIG    1        4.226   1.096   4.598  0.00  0.00    -0.030 C 
BRANCH  23  24
ATOM     24  C   LIG    1        4.874   0.231   5.672  0.00  0.00    +0.038 C 
BRANCH  24  25
ATOM     25  C   LIG    1        6.426   0.270   5.690  0.00  0.00    +0.124 C 
BRANCH  25  26
ATOM     26  C   LIG    1        7.056   1.644   6.026  0.00  0.00    +0.305 C 
ATOM     27  O   LIG    1        8.199   1.862   5.564  0.00  0.00    -0.251 OA
BRANCH  26  28
ATOM     28  O   LIG    1        6.434   2.443   6.764  0.00  0.00    -0.481 OA
ATOM     29  H   LIG    1        6.808   3.277   6.972  0.00  0.00    +0.295 HD
ENDBRANCH  26  28
ENDBRANCH  25  26
ENDBRANCH  24  25
ENDBRANCH  23  24
ENDBRANCH  21  22
ENDBRANCH  20  21
ENDBRANCH  18  19
ENDBRANCH   1  18
TORSDOF 17
