REMARK  Name = DB18048
REMARK                            x       y       z     vdW  Elec       q    Type
REMARK                         _______ _______ _______ _____ _____    ______ ____
ROOT
ATOM      1  N   LIG    1        7.676  -0.569   0.156  0.00  0.00    -0.313 N 
ATOM      2  C   LIG    1        8.265   0.452  -0.719  0.00  0.00    +0.125 C 
ATOM      3  C   LIG    1        9.744   0.230  -1.099  0.00  0.00    +0.125 C 
ATOM      4  N   LIG    1       10.706   0.555  -0.018  0.00  0.00    -0.311 N 
ATOM      5  C   LIG    1       10.909  -0.488   1.020  0.00  0.00    +0.108 C 
ATOM      6  C   LIG    1        9.732  -1.444   1.317  0.00  0.00    +0.038 C 
ATOM      7  C   LIG    1        8.356  -0.762   1.441  0.00  0.00    +0.108 C 
ENDROOT
BRANCH   1  13
ATOM      8  C   LIG    1        1.343   0.202   0.065  0.00  0.00    +0.121 A 
ATOM      9  C   LIG    1        2.082  -0.967   0.250  0.00  0.00    +0.055 A 
ATOM     10  C   LIG    1        3.497  -0.946   0.225  0.00  0.00    +0.005 A 
ATOM     11  C   LIG    1        4.283  -2.107   0.405  0.00  0.00    +0.032 A 
ATOM     12  C   LIG    1        5.676  -2.020   0.367  0.00  0.00    +0.092 A 
ATOM     13  C   LIG    1        6.279  -0.761   0.144  0.00  0.00    +0.140 A 
ATOM     14  N   LIG    1        5.529   0.365  -0.024  0.00  0.00    -0.231 NA
ATOM     15  C   LIG    1        4.172   0.288   0.008  0.00  0.00    +0.073 A 
ATOM     16  C   LIG    1        3.411   1.465  -0.177  0.00  0.00    +0.032 A 
ATOM     17  C   LIG    1        2.019   1.413  -0.148  0.00  0.00    +0.048 A 
BRANCH  12  18
ATOM     18  C   LIG    1        6.439  -3.259   0.518  0.00  0.00    +0.103 C 
ATOM     19  N   LIG    1        7.044  -4.238   0.638  0.00  0.00    -0.191 NA
ENDBRANCH  12  18
BRANCH   8  20
ATOM     20  O   LIG    1       -0.032   0.072   0.108  0.00  0.00    -0.492 OA
BRANCH  20  22
ATOM     21  C   LIG    1       -2.321   0.799  -0.006  0.00  0.00    +0.048 C 
ATOM     22  C   LIG    1       -0.851   1.220  -0.098  0.00  0.00    +0.225 C 
ENDBRANCH  20  22
ENDBRANCH   8  20
ENDBRANCH   1  13
BRANCH   4  23
ATOM     23  C   LIG    1       11.377   1.765   0.063  0.00  0.00    +0.137 C 
ATOM     24  S   LIG    1       10.831   3.183  -0.670  0.00  0.00    -0.018 S 
BRANCH  23  25
ATOM     25  N   LIG    1       12.550   1.723   0.777  0.00  0.00    -0.295 N 
ATOM     26  H   LIG    1       12.823   0.815   1.124  0.00  0.00    +0.154 HD
BRANCH  25  27
ATOM     27  C   LIG    1       13.461   2.748   1.067  0.00  0.00    +0.068 A 
ATOM     28  C   LIG    1       13.246   3.616   2.146  0.00  0.00    +0.144 A 
ATOM     29  F   LIG    1       12.139   3.502   2.918  0.00  0.00    -0.204 F 
ATOM     30  C   LIG    1       14.184   4.611   2.431  0.00  0.00    +0.040 A 
ATOM     31  C   LIG    1       15.335   4.733   1.652  0.00  0.00    +0.003 A 
ATOM     32  C   LIG    1       15.555   3.858   0.587  0.00  0.00    +0.002 A 
ATOM     33  C   LIG    1       14.623   2.862   0.297  0.00  0.00    +0.026 A 
ENDBRANCH  25  27
ENDBRANCH  23  25
ENDBRANCH   4  23
TORSDOF 7
