REMARK  Name = DB18013
REMARK                            x       y       z     vdW  Elec       q    Type
REMARK                         _______ _______ _______ _____ _____    ______ ____
ROOT
ATOM      1  C   LIG    1       -2.839  -1.048  -1.310  0.00  0.00    +0.267 C 
ATOM      2  C   LIG    1       -2.354  -1.315   0.132  0.00  0.00    +0.247 C 
ATOM      3  C   LIG    1       -0.802  -1.410   0.194  0.00  0.00    +0.248 C 
ATOM      4  N   LIG    1       -0.175  -0.194   0.119  0.00  0.00    -0.287 N 
ATOM      5  C   LIG    1       -0.914   1.104   0.162  0.00  0.00    +0.137 C 
ATOM      6  C   LIG    1       -2.412   0.879  -0.128  0.00  0.00    +0.273 C 
ATOM      7  O   LIG    1       -0.220  -2.496   0.245  0.00  0.00    -0.273 OA
ATOM      8  O   LIG    1       -2.839  -0.126   0.725  0.00  0.00    -0.334 OA
ATOM      9  O   LIG    1       -2.573   0.354  -1.414  0.00  0.00    -0.332 OA
ENDROOT
BRANCH   1  10
ATOM     10  C   LIG    1       -4.319  -1.361  -1.658  0.00  0.00    +0.337 C 
ATOM     11  O   LIG    1       -4.773  -2.465  -1.281  0.00  0.00    -0.248 OA
BRANCH  10  12
ATOM     12  O   LIG    1       -4.977  -0.526  -2.323  0.00  0.00    -0.479 OA
ATOM     13  H   LIG    1       -4.978  -0.569  -3.259  0.00  0.00    +0.295 HD
ENDBRANCH  10  12
ENDBRANCH   1  10
BRANCH   5  14
ATOM     14  C   LIG    1       -0.608   1.933   1.433  0.00  0.00    +0.062 C 
BRANCH  14  15
ATOM     15  C   LIG    1       -1.154   3.353   1.379  0.00  0.00    -0.045 A 
ATOM     16  C   LIG    1       -0.514   4.314   0.591  0.00  0.00    +0.004 A 
ATOM     17  C   LIG    1       -1.012   5.613   0.537  0.00  0.00    +0.000 A 
ATOM     18  C   LIG    1       -2.148   5.947   1.272  0.00  0.00    +0.000 A 
ATOM     19  C   LIG    1       -2.790   4.995   2.060  0.00  0.00    +0.000 A 
ATOM     20  C   LIG    1       -2.293   3.695   2.114  0.00  0.00    +0.004 A 
ENDBRANCH  14  15
ENDBRANCH   5  14
BRANCH   4  21
ATOM     21  C   LIG    1        1.296  -0.152   0.028  0.00  0.00    +0.143 C 
BRANCH  21  22
ATOM     22  C   LIG    1        1.900  -0.680  -1.273  0.00  0.00    -0.030 A 
ATOM     23  C   LIG    1        1.299  -0.405  -2.506  0.00  0.00    +0.005 A 
ATOM     24  C   LIG    1        1.861  -0.900  -3.680  0.00  0.00    +0.000 A 
ATOM     25  C   LIG    1        3.022  -1.668  -3.618  0.00  0.00    +0.000 A 
ATOM     26  C   LIG    1        3.626  -1.945  -2.394  0.00  0.00    +0.000 A 
ATOM     27  C   LIG    1        3.064  -1.451  -1.220  0.00  0.00    +0.005 A 
ENDBRANCH  21  22
ENDBRANCH   4  21
TORSDOF 6
