REMARK  Name = DB18079
REMARK                            x       y       z     vdW  Elec       q    Type
REMARK                         _______ _______ _______ _____ _____    ______ ____
ROOT
ATOM      1  C   LIG    1       -0.835  -0.471  -0.893  0.00  0.00    -0.002 C 
ATOM      2  C   LIG    1       -2.397  -0.604  -0.857  0.00  0.00    -0.026 C 
ATOM      3  C   LIG    1       -2.895  -0.872   0.599  0.00  0.00    +0.012 C 
ATOM      4  C   LIG    1       -3.185   0.553  -1.535  0.00  0.00    +0.007 C 
ATOM      5  C   LIG    1       -4.690   0.222  -1.678  0.00  0.00    +0.005 C 
ATOM      6  C   LIG    1       -4.966  -1.124  -2.429  0.00  0.00    +0.003 C 
ATOM      7  C   LIG    1       -6.493  -1.519  -2.511  0.00  0.00    -0.008 C 
ATOM      8  C   LIG    1       -7.151  -1.562  -1.102  0.00  0.00    +0.016 C 
ATOM      9  C   LIG    1       -7.237  -0.487  -3.423  0.00  0.00    +0.014 C 
ATOM     10  C   LIG    1       -8.660  -0.895  -3.845  0.00  0.00    +0.035 C 
ATOM     11  C   LIG    1       -8.635  -2.265  -4.537  0.00  0.00    +0.156 C 
ATOM     12  C   LIG    1       -8.045  -3.333  -3.597  0.00  0.00    +0.065 C 
ATOM     13  C   LIG    1       -6.635  -2.930  -3.148  0.00  0.00    -0.065 C 
ATOM     14  C   LIG    1       -5.595  -3.780  -3.289  0.00  0.00    -0.027 C 
ATOM     15  C   LIG    1       -4.169  -3.536  -2.828  0.00  0.00    +0.031 C 
ATOM     16  C   LIG    1       -4.059  -2.289  -1.919  0.00  0.00    +0.000 C 
ATOM     17  C   LIG    1       -2.582  -1.818  -1.804  0.00  0.00    -0.001 C 
ATOM     18  C   LIG    1       -1.516  -2.826  -1.375  0.00  0.00    +0.004 C 
ATOM     19  C   LIG    1       -0.344  -1.947  -0.916  0.00  0.00    +0.004 C 
ENDROOT
BRANCH   1  20
ATOM     20  C   LIG    1       -0.124   0.396   0.205  0.00  0.00    -0.010 C 
ATOM     21  C   LIG    1       -0.664   1.843   0.281  0.00  0.00    +0.008 C 
BRANCH  20  22
ATOM     22  C   LIG    1        1.421   0.400   0.012  0.00  0.00    +0.003 C 
BRANCH  22  23
ATOM     23  C   LIG    1        2.233   0.956   1.202  0.00  0.00    +0.003 C 
BRANCH  23  24
ATOM     24  C   LIG    1        3.758   0.767   1.023  0.00  0.00    +0.034 C 
BRANCH  24  25
ATOM     25  C   LIG    1        4.659   1.229   2.201  0.00  0.00    +0.061 C 
ATOM     26  C   LIG    1        4.480   2.726   2.532  0.00  0.00    +0.041 C 
ATOM     27  C   LIG    1        6.137   0.884   1.935  0.00  0.00    +0.041 C 
BRANCH  25  28
ATOM     28  O   LIG    1        4.267   0.525   3.366  0.00  0.00    -0.389 OA
ATOM     29  H   LIG    1        4.825   0.807   4.094  0.00  0.00    +0.210 HD
ENDBRANCH  25  28
ENDBRANCH  24  25
ENDBRANCH  23  24
ENDBRANCH  22  23
ENDBRANCH  20  22
ENDBRANCH   1  20
BRANCH  11  30
ATOM     30  O   LIG    1       -9.961  -2.608  -4.920  0.00  0.00    -0.212 OA
BRANCH  30  31
ATOM     31  S   LIG    1      -10.203  -3.382  -6.383  0.00  0.00    +0.208 S 
ATOM     32  O   LIG    1       -9.391  -4.600  -6.293  0.00  0.00    -0.118 OA
ATOM     33  O   LIG    1       -9.731  -2.415  -7.382  0.00  0.00    -0.118 OA
BRANCH  31  34
ATOM     34  O   LIG    1      -11.650  -3.620  -6.410  0.00  0.00    -0.231 OA
ATOM     35  H   LIG    1      -12.116  -2.772  -6.471  0.00  0.00    +0.247 HD
ENDBRANCH  31  34
ENDBRANCH  30  31
ENDBRANCH  11  30
TORSDOF 9
