REMARK  Name = DB18042
REMARK                            x       y       z     vdW  Elec       q    Type
REMARK                         _______ _______ _______ _____ _____    ______ ____
ROOT
ATOM      1  C   LIG    1        2.204   0.757  -3.007  0.00  0.00    +0.120 A 
ATOM      2  C   LIG    1        1.564   0.045  -4.022  0.00  0.00    +0.046 A 
ATOM      3  C   LIG    1        1.732   0.411  -5.354  0.00  0.00    +0.007 A 
ATOM      4  C   LIG    1        2.547   1.496  -5.681  0.00  0.00    -0.047 A 
ATOM      5  C   LIG    1        3.197   2.209  -4.672  0.00  0.00    +0.007 A 
ATOM      6  C   LIG    1        3.027   1.843  -3.340  0.00  0.00    +0.046 A 
ENDROOT
BRANCH   1   7
ATOM      7  O   LIG    1        1.971   0.323  -1.718  0.00  0.00    -0.494 OA
BRANCH   7   8
ATOM      8  C   LIG    1        2.493   1.064  -0.616  0.00  0.00    +0.210 C 
BRANCH   8   9
ATOM      9  C   LIG    1        1.933   0.483   0.698  0.00  0.00    -0.037 C 
BRANCH   9  10
ATOM     10  N   LIG    1        0.398   0.286   0.606  0.00  0.00    +0.384 N 
ATOM     11  H   LIG    1        0.224  -0.059  -0.328  0.00  0.00    -0.082 HD
BRANCH  10  12
ATOM     12  C   LIG    1       -0.135  -0.807   1.566  0.00  0.00    -0.079 C 
BRANCH  12  13
ATOM     13  C   LIG    1        0.205  -2.218   1.044  0.00  0.00    -0.019 C 
BRANCH  13  14
ATOM     14  C   LIG    1       -0.359  -2.512  -0.363  0.00  0.00    -0.002 C 
BRANCH  14  15
ATOM     15  C   LIG    1       -0.060  -3.934  -0.884  0.00  0.00    -0.000 C 
BRANCH  15  17
ATOM     16  C   LIG    1        2.183  -3.362  -2.047  0.00  0.00    +0.004 C 
ATOM     17  C   LIG    1        1.433  -4.281  -1.069  0.00  0.00    -0.003 C 
ENDBRANCH  15  17
ENDBRANCH  14  15
ENDBRANCH  13  14
ENDBRANCH  12  13
ENDBRANCH  10  12
BRANCH  10  18
ATOM     18  C   LIG    1       -0.383   1.623   0.708  0.00  0.00    -0.044 C 
BRANCH  18  19
ATOM     19  C   LIG    1       -1.775   1.544   0.024  0.00  0.00    +0.129 C 
BRANCH  19  20
ATOM     20  O   LIG    1       -1.643   1.037  -1.297  0.00  0.00    -0.391 OA
ATOM     21  H   LIG    1       -2.471   1.169  -1.764  0.00  0.00    +0.210 HD
ENDBRANCH  19  20
BRANCH  19  22
ATOM     22  C   LIG    1       -2.523   2.912   0.034  0.00  0.00    +0.172 C 
BRANCH  22  23
ATOM     23  O   LIG    1       -1.862   3.858  -0.794  0.00  0.00    -0.387 OA
ATOM     24  H   LIG    1       -0.931   3.879  -0.559  0.00  0.00    +0.210 HD
ENDBRANCH  22  23
BRANCH  22  25
ATOM     25  C   LIG    1       -4.053   2.854  -0.279  0.00  0.00    +0.176 C 
BRANCH  25  26
ATOM     26  O   LIG    1       -4.309   2.224  -1.524  0.00  0.00    -0.387 OA
ATOM     27  H   LIG    1       -4.111   1.289  -1.441  0.00  0.00    +0.210 HD
ENDBRANCH  25  26
BRANCH  25  28
ATOM     28  C   LIG    1       -4.788   4.229  -0.246  0.00  0.00    +0.171 C 
BRANCH  28  29
ATOM     29  O   LIG    1       -4.531   4.915   0.969  0.00  0.00    -0.387 OA
ATOM     30  H   LIG    1       -3.585   5.058   1.044  0.00  0.00    +0.210 HD
ENDBRANCH  28  29
BRANCH  28  31
ATOM     31  C   LIG    1       -6.320   4.159  -0.468  0.00  0.00    +0.189 C 
BRANCH  31  32
ATOM     32  O   LIG    1       -6.964   3.320   0.473  0.00  0.00    -0.392 OA
ATOM     33  H   LIG    1       -7.909   3.339   0.303  0.00  0.00    +0.210 HD
ENDBRANCH  31  32
ENDBRANCH  28  31
ENDBRANCH  25  28
ENDBRANCH  22  25
ENDBRANCH  19  22
ENDBRANCH  18  19
ENDBRANCH  10  18
ENDBRANCH   9  10
ENDBRANCH   8   9
ENDBRANCH   7   8
ENDBRANCH   1   7
BRANCH   4  34
ATOM     34  C   LIG    1        2.724   1.905  -7.136  0.00  0.00    +0.035 C 
BRANCH  34  35
ATOM     35  C   LIG    1        1.728   2.998  -7.565  0.00  0.00    +0.006 C 
BRANCH  35  36
ATOM     36  C   LIG    1        1.896   3.416  -9.041  0.00  0.00    +0.015 C 
BRANCH  36  37
ATOM     37  C   LIG    1        0.986   4.580  -9.485  0.00  0.00    +0.084 C 
BRANCH  37  38
ATOM     38  N   LIG    1       -0.449   4.240  -9.516  0.00  0.00    -0.280 NA
ATOM     39  H   LIG    1       -0.680   3.282  -9.295  0.00  0.00    +0.125 HD
BRANCH  38  40
ATOM     40  C   LIG    1       -1.483   5.042  -9.803  0.00  0.00    +0.189 C 
BRANCH  40  41
ATOM     41  N   LIG    1       -1.287   6.344 -10.104  0.00  0.00    -0.276 N 
ATOM     42  H   LIG    1       -0.320   6.632 -10.075  0.00  0.00    +0.152 HD
ATOM     43  C   LIG    1       -2.260   7.410 -10.451  0.00  0.00    +0.268 C 
ATOM     44  O   LIG    1       -3.469   7.191 -10.528  0.00  0.00    -0.268 OA
BRANCH  43  45
ATOM     45  C   LIG    1       -1.703   8.793 -10.719  0.00  0.00    +0.166 A 
ATOM     46  C   LIG    1       -2.183   9.634 -11.747  0.00  0.00    +0.149 A 
ATOM     47  N   LIG    1       -1.673  10.880 -11.926  0.00  0.00    -0.213 NA
ATOM     48  C   LIG    1       -0.692  11.303 -11.089  0.00  0.00    +0.156 A 
ATOM     49  C   LIG    1       -0.210  10.478 -10.064  0.00  0.00    +0.169 A 
ATOM     50 CL   LIG    1        1.040  11.005  -8.989  0.00  0.00    -0.058 Cl
ATOM     51  N   LIG    1       -0.717   9.231  -9.883  0.00  0.00    -0.224 NA
BRANCH  46  52
ATOM     52  N   LIG    1       -3.182   9.256 -12.648  0.00  0.00    -0.341 N 
ATOM     53  H   LIG    1       -3.483   9.910 -13.357  0.00  0.00    +0.144 HD
ATOM     54  H   LIG    1       -3.618   8.350 -12.556  0.00  0.00    +0.144 HD
ENDBRANCH  46  52
BRANCH  48  55
ATOM     55  N   LIG    1       -0.194  12.590 -11.299  0.00  0.00    -0.341 N 
ATOM     56  H   LIG    1       -0.584  13.158 -12.038  0.00  0.00    +0.144 HD
ATOM     57  H   LIG    1        0.525  12.951 -10.688  0.00  0.00    +0.144 HD
ENDBRANCH  48  55
ENDBRANCH  43  45
ENDBRANCH  40  41
BRANCH  40  58
ATOM     58  N   LIG    1       -2.678   4.451  -9.760  0.00  0.00    -0.294 NA
ATOM     59  H   LIG    1       -2.754   3.476  -9.509  0.00  0.00    +0.122 HD
ATOM     60  H   LIG    1       -3.507   4.989  -9.969  0.00  0.00    +0.122 HD
ENDBRANCH  40  58
ENDBRANCH  38  40
ENDBRANCH  37  38
ENDBRANCH  36  37
ENDBRANCH  35  36
ENDBRANCH  34  35
ENDBRANCH   4  34
TORSDOF 31
