REMARK  Name = DB18206
REMARK                            x       y       z     vdW  Elec       q    Type
REMARK                         _______ _______ _______ _____ _____    ______ ____
ROOT
ATOM      1  C   LIG    1       -3.799  -5.333  -2.805  0.00  0.00    +0.161 C 
ATOM      2  C   LIG    1       -3.056  -6.555  -2.192  0.00  0.00    +0.234 C 
ATOM      3  O   LIG    1       -2.941  -7.567  -2.885  0.00  0.00    -0.274 OA
ATOM      4  N   LIG    1       -2.490  -6.539  -0.964  0.00  0.00    -0.302 N 
ATOM      5  H   LIG    1       -1.947  -7.364  -0.755  0.00  0.00    +0.150 HD
ATOM      6  C   LIG    1       -2.638  -5.692   0.234  0.00  0.00    +0.169 C 
ATOM      7  C   LIG    1       -2.364  -4.188   0.012  0.00  0.00    +0.112 C 
ATOM      8  S   LIG    1       -0.686  -3.773  -0.542  0.00  0.00    -0.091 S 
ATOM      9  S   LIG    1        0.087  -2.736   1.027  0.00  0.00    -0.091 S 
ATOM     10  C   LIG    1       -0.630  -1.073   0.870  0.00  0.00    +0.112 C 
ATOM     11  C   LIG    1       -0.020  -0.099  -0.175  0.00  0.00    +0.169 C 
ATOM     12  C   LIG    1       -0.778   1.248  -0.178  0.00  0.00    +0.235 C 
ATOM     13  O   LIG    1       -1.305   1.619   0.869  0.00  0.00    -0.274 OA
ATOM     14  N   LIG    1       -0.851   2.025  -1.278  0.00  0.00    -0.302 N 
ATOM     15  H   LIG    1       -1.367   2.886  -1.166  0.00  0.00    +0.150 HD
ATOM     16  C   LIG    1       -0.311   1.867  -2.635  0.00  0.00    +0.163 C 
ATOM     17  C   LIG    1       -1.010   0.774  -3.471  0.00  0.00    +0.234 C 
ATOM     18  O   LIG    1       -0.360   0.143  -4.306  0.00  0.00    -0.274 OA
ATOM     19  N   LIG    1       -2.327   0.594  -3.249  0.00  0.00    -0.302 N 
ATOM     20  H   LIG    1       -2.777   1.157  -2.542  0.00  0.00    +0.150 HD
ATOM     21  C   LIG    1       -3.215  -0.337  -3.962  0.00  0.00    +0.163 C 
ATOM     22  C   LIG    1       -2.741  -1.799  -3.816  0.00  0.00    +0.234 C 
ATOM     23  O   LIG    1       -2.374  -2.171  -2.706  0.00  0.00    -0.274 OA
ATOM     24  N   LIG    1       -2.744  -2.559  -4.926  0.00  0.00    -0.302 N 
ATOM     25  H   LIG    1       -3.094  -2.124  -5.767  0.00  0.00    +0.150 HD
ATOM     26  C   LIG    1       -2.226  -3.915  -5.152  0.00  0.00    +0.159 C 
ATOM     27  C   LIG    1       -3.326  -4.990  -5.302  0.00  0.00    +0.234 C 
ATOM     28  O   LIG    1       -3.604  -5.350  -6.445  0.00  0.00    -0.274 OA
ATOM     29  N   LIG    1       -3.971  -5.527  -4.249  0.00  0.00    -0.302 N 
ATOM     30  H   LIG    1       -4.679  -6.213  -4.468  0.00  0.00    +0.150 HD
ENDROOT
BRANCH   6  31
ATOM     31  C   LIG    1       -3.930  -5.995   1.020  0.00  0.00    +0.235 C 
ATOM     32  N   LIG    1       -4.291  -7.289   1.092  0.00  0.00    -0.300 N 
ATOM     33  H   LIG    1       -3.712  -7.987   0.649  0.00  0.00    +0.150 HD
ATOM     34  O   LIG    1       -4.570  -5.076   1.531  0.00  0.00    -0.274 OA
BRANCH  32  35
ATOM     35  C   LIG    1       -5.457  -7.808   1.815  0.00  0.00    +0.187 C 
BRANCH  35  36
ATOM     36  C   LIG    1       -5.337  -7.638   3.352  0.00  0.00    +0.233 C 
ATOM     37  O   LIG    1       -4.244  -7.705   3.913  0.00  0.00    -0.274 OA
ATOM     38  N   LIG    1       -6.479  -7.444   4.019  0.00  0.00    -0.328 N 
ATOM     39  H   LIG    1       -6.464  -7.334   5.022  0.00  0.00    +0.145 HD
ATOM     40  H   LIG    1       -7.359  -7.397   3.527  0.00  0.00    +0.145 HD
ENDBRANCH  35  36
BRANCH  35  41
ATOM     41  C   LIG    1       -5.661  -9.321   1.512  0.00  0.00    +0.141 C 
ATOM     42  C   LIG    1       -5.808  -9.637   0.015  0.00  0.00    +0.040 C 
BRANCH  41  43
ATOM     43  O   LIG    1       -4.629 -10.132   2.047  0.00  0.00    -0.390 OA
ATOM     44  H   LIG    1       -4.611 -10.015   3.001  0.00  0.00    +0.210 HD
ENDBRANCH  41  43
ENDBRANCH  35  41
ENDBRANCH  32  35
ENDBRANCH   6  31
BRANCH  11  45
ATOM     45  N   LIG    1        1.372   0.162   0.190  0.00  0.00    -0.305 N 
ATOM     46  H   LIG    1        1.508   0.880   0.888  0.00  0.00    +0.149 HD
ATOM     47  C   LIG    1        2.441  -0.488  -0.303  0.00  0.00    +0.199 C 
ATOM     48  O   LIG    1        2.363  -1.385  -1.151  0.00  0.00    -0.278 OA
BRANCH  47  49
ATOM     49  C   LIG    1        3.805  -0.064   0.291  0.00  0.00    +0.017 C 
BRANCH  49  50
ATOM     50  N   LIG    1        4.742   0.105  -0.876  0.00  0.00    +0.386 N 
ATOM     51  H   LIG    1        5.681   0.234  -0.526  0.00  0.00    -0.089 HD
ATOM     52  H   LIG    1        4.704  -0.728  -1.446  0.00  0.00    -0.089 HD
ATOM     53  H   LIG    1        4.462   0.910  -1.417  0.00  0.00    -0.089 HD
ENDBRANCH  49  50
BRANCH  49  54
ATOM     54  C   LIG    1        4.283  -1.081   1.363  0.00  0.00    +0.028 C 
BRANCH  54  55
ATOM     55  C   LIG    1        5.508  -0.604   2.140  0.00  0.00    -0.047 A 
ATOM     56  C   LIG    1        6.791  -0.851   1.640  0.00  0.00    +0.019 A 
ATOM     57  C   LIG    1        7.916  -0.283   2.242  0.00  0.00    +0.034 A 
ATOM     58  I   LIG    1        9.806  -0.755   1.462  0.00  0.00    -0.042 I 
ATOM     59  C   LIG    1        7.758   0.586   3.330  0.00  0.00    +0.038 A 
ATOM     60  C   LIG    1        6.474   0.892   3.787  0.00  0.00    +0.024 A 
ATOM     61  C   LIG    1        5.357   0.322   3.177  0.00  0.00    +0.005 A 
BRANCH  59  62
ATOM     62  N   LIG    1        8.859   1.169   3.958  0.00  0.00    -0.357 N 
ATOM     63  H   LIG    1        8.708   1.665   4.825  0.00  0.00    +0.142 HD
ATOM     64  H   LIG    1        9.777   0.816   3.732  0.00  0.00    +0.142 HD
ENDBRANCH  59  62
ENDBRANCH  54  55
ENDBRANCH  49  54
ENDBRANCH  47  49
ENDBRANCH  11  45
BRANCH   1  66
ATOM     65  C   LIG    1       -6.111  -6.397  -2.198  0.00  0.00    +0.009 C 
ATOM     66  C   LIG    1       -5.202  -5.152  -2.153  0.00  0.00    +0.012 C 
ATOM     67  C   LIG    1       -5.931  -3.914  -2.704  0.00  0.00    +0.009 C 
ENDBRANCH   1  66
BRANCH  16  68
ATOM     68  C   LIG    1        1.242   1.812  -2.696  0.00  0.00    +0.067 C 
BRANCH  68  69
ATOM     69  C   LIG    1        1.830   2.434  -3.959  0.00  0.00    -0.044 A 
ATOM     70  C   LIG    1        1.633   3.791  -4.239  0.00  0.00    +0.021 A 
ATOM     71  C   LIG    1        2.176   4.364  -5.390  0.00  0.00    +0.055 A 
ATOM     72  I   LIG    1        1.847   6.401  -5.756  0.00  0.00    -0.040 I 
ATOM     73  C   LIG    1        2.920   3.575  -6.274  0.00  0.00    +0.130 A 
ATOM     74  C   LIG    1        3.125   2.223  -5.995  0.00  0.00    +0.047 A 
ATOM     75  C   LIG    1        2.586   1.656  -4.841  0.00  0.00    +0.007 A 
BRANCH  73  76
ATOM     76  O   LIG    1        3.456   4.113  -7.415  0.00  0.00    -0.506 OA
ATOM     77  H   LIG    1        3.242   5.043  -7.522  0.00  0.00    +0.292 HD
ENDBRANCH  73  76
ENDBRANCH  68  69
ENDBRANCH  16  68
BRANCH  21  78
ATOM     78  C   LIG    1       -3.435   0.126  -5.427  0.00  0.00    +0.069 C 
BRANCH  78  79
ATOM     79  C   LIG    1       -3.810   1.567  -5.611  0.00  0.00    -0.020 A 
ATOM     80  C   LIG    1       -2.969   2.680  -6.048  0.00  0.00    +0.003 A 
ATOM     81  C   LIG    1       -1.623   2.805  -6.466  0.00  0.00    +0.010 A 
ATOM     82  C   LIG    1       -1.088   4.052  -6.845  0.00  0.00    +0.001 A 
ATOM     83  C   LIG    1       -1.886   5.212  -6.806  0.00  0.00    +0.002 A 
ATOM     84  C   LIG    1       -3.228   5.126  -6.392  0.00  0.00    +0.026 A 
ATOM     85  C   LIG    1       -3.752   3.874  -6.023  0.00  0.00    +0.047 A 
ATOM     86  N   LIG    1       -4.992   3.460  -5.583  0.00  0.00    -0.360 N 
ATOM     87  H   LIG    1       -5.798   4.054  -5.446  0.00  0.00    +0.165 HD
ATOM     88  C   LIG    1       -5.021   2.103  -5.337  0.00  0.00    +0.087 A 
ENDBRANCH  78  79
ENDBRANCH  21  78
BRANCH  26  89
ATOM     89  C   LIG    1       -0.940  -4.291  -4.365  0.00  0.00    +0.032 C 
BRANCH  89  90
ATOM     90  C   LIG    1       -0.349  -5.684  -4.663  0.00  0.00    +0.000 C 
BRANCH  90  91
ATOM     91  C   LIG    1        0.110  -5.883  -6.121  0.00  0.00    -0.019 C 
BRANCH  91  92
ATOM     92  C   LIG    1        0.650  -7.295  -6.413  0.00  0.00    -0.086 C 
BRANCH  92  93
ATOM     93  N   LIG    1       -0.409  -8.322  -6.369  0.00  0.00    +0.378 N 
ATOM     94  H   LIG    1       -0.824  -8.339  -5.448  0.00  0.00    -0.090 HD
ATOM     95  H   LIG    1       -1.121  -8.102  -7.051  0.00  0.00    -0.090 HD
ATOM     96  H   LIG    1       -0.014  -9.228  -6.576  0.00  0.00    -0.090 HD
ENDBRANCH  92  93
ENDBRANCH  91  92
ENDBRANCH  90  91
ENDBRANCH  89  90
ENDBRANCH  26  89
TORSDOF 22
