REMARK  Name = DB18406
REMARK                            x       y       z     vdW  Elec       q    Type
REMARK                         _______ _______ _______ _____ _____    ______ ____
ROOT
ATOM      1  C   LIG    1       -1.839   1.715  -0.056  0.00  0.00    -0.002 C 
ATOM      2  C   LIG    1       -2.462   3.155  -0.021  0.00  0.00    -0.022 C 
ATOM      3  C   LIG    1       -1.571   4.142   0.798  0.00  0.00    +0.012 C 
ATOM      4  C   LIG    1       -2.835   3.740  -1.413  0.00  0.00    +0.008 C 
ATOM      5  C   LIG    1       -3.693   5.019  -1.285  0.00  0.00    +0.005 C 
ATOM      6  C   LIG    1       -4.965   4.803  -0.427  0.00  0.00    +0.031 C 
ATOM      7  C   LIG    1       -4.633   4.124   0.913  0.00  0.00    -0.066 C 
ATOM      8  C   LIG    1       -5.000   4.568   2.137  0.00  0.00    -0.000 C 
ATOM      9  C   LIG    1       -3.810   2.845   0.686  0.00  0.00    +0.021 C 
ATOM     10  C   LIG    1       -3.439   1.924   1.850  0.00  0.00    +0.009 C 
ATOM     11  C   LIG    1       -2.304   1.063   1.280  0.00  0.00    +0.005 C 
ENDROOT
BRANCH   8  12
ATOM     12  C   LIG    1       -5.771   5.772   2.427  0.00  0.00    +0.004 C 
ATOM     13  C   LIG    1       -6.188   6.181   3.650  0.00  0.00    -0.042 C 
ATOM     14  C   LIG    1       -5.970   5.442   4.895  0.00  0.00    -0.051 C 
ATOM     15  C   LIG    1       -6.335   4.154   5.043  0.00  0.00    +0.012 C 
ATOM     16  C   LIG    1       -5.324   6.227   6.031  0.00  0.00    +0.037 C 
ATOM     17  C   LIG    1       -6.086   7.555   6.244  0.00  0.00    +0.036 C 
ATOM     18  C   LIG    1       -6.281   8.347   4.928  0.00  0.00    +0.119 C 
ATOM     19  C   LIG    1       -6.945   7.498   3.816  0.00  0.00    +0.066 C 
BRANCH  18  20
ATOM     20  O   LIG    1       -7.016   9.531   5.160  0.00  0.00    -0.391 OA
ATOM     21  H   LIG    1       -7.891   9.290   5.474  0.00  0.00    +0.210 HD
ENDBRANCH  18  20
ENDBRANCH   8  12
BRANCH   1  22
ATOM     22  C   LIG    1       -0.298   1.565  -0.312  0.00  0.00    -0.010 C 
ATOM     23  C   LIG    1        0.176   2.261  -1.608  0.00  0.00    +0.008 C 
BRANCH  22  24
ATOM     24  C   LIG    1        0.134   0.070  -0.312  0.00  0.00    +0.006 C 
BRANCH  24  25
ATOM     25  C   LIG    1        1.662  -0.177  -0.265  0.00  0.00    +0.034 C 
BRANCH  25  26
ATOM     26  C   LIG    1        2.061  -1.654  -0.003  0.00  0.00    +0.146 C 
BRANCH  26  27
ATOM     27  C   LIG    1        3.600  -1.921   0.131  0.00  0.00    +0.086 C 
ATOM     28  C   LIG    1        3.920  -3.426   0.292  0.00  0.00    +0.043 C 
ATOM     29  C   LIG    1        4.228  -1.134   1.304  0.00  0.00    +0.043 C 
BRANCH  27  30
ATOM     30  O   LIG    1        4.265  -1.487  -1.044  0.00  0.00    -0.387 OA
ATOM     31  H   LIG    1        4.083  -0.553  -1.170  0.00  0.00    +0.210 HD
ENDBRANCH  27  30
ENDBRANCH  26  27
BRANCH  26  32
ATOM     32  O   LIG    1        1.490  -2.466  -1.019  0.00  0.00    -0.389 OA
ATOM     33  H   LIG    1        0.548  -2.288  -1.060  0.00  0.00    +0.210 HD
ENDBRANCH  26  32
ENDBRANCH  25  26
ENDBRANCH  24  25
ENDBRANCH  22  24
ENDBRANCH   1  22
TORSDOF 9
