REMARK  Name = DB18005
REMARK                            x       y       z     vdW  Elec       q    Type
REMARK                         _______ _______ _______ _____ _____    ______ ____
ROOT
ATOM      1  N   LIG    1       -0.949  -1.771   0.019  0.00  0.00    -0.268 N 
ATOM      2  C   LIG    1       -1.352  -1.491  -1.289  0.00  0.00    +0.044 A 
ATOM      3  C   LIG    1       -2.033  -2.303  -2.199  0.00  0.00    +0.025 A 
ATOM      4  C   LIG    1       -2.361  -1.790  -3.456  0.00  0.00    +0.022 A 
ATOM      5  C   LIG    1       -2.016  -0.477  -3.793  0.00  0.00    +0.041 A 
ATOM      6 CL   LIG    1       -2.425   0.152  -5.347  0.00  0.00    -0.084 Cl
ATOM      7  C   LIG    1       -1.337   0.326  -2.873  0.00  0.00    +0.030 A 
ATOM      8  C   LIG    1       -0.998  -0.196  -1.623  0.00  0.00    +0.028 A 
ATOM      9  C   LIG    1       -0.267   0.408  -0.457  0.00  0.00    +0.221 C 
ATOM     10  C   LIG    1       -0.340  -0.713   0.612  0.00  0.00    +0.269 C 
ATOM     11  O   LIG    1        0.080  -0.627   1.768  0.00  0.00    -0.270 OA
ENDROOT
BRANCH   1  13
ATOM     12  C   LIG    1       -2.578  -3.079   1.389  0.00  0.00    +0.025 C 
ATOM     13  C   LIG    1       -1.185  -3.020   0.746  0.00  0.00    +0.110 C 
ENDBRANCH   1  13
BRANCH   9  14
ATOM     14  O   LIG    1       -0.840   1.652   0.009  0.00  0.00    -0.429 OA
BRANCH  14  15
ATOM     15  C   LIG    1       -2.118   1.830   0.493  0.00  0.00    +0.404 C 
ATOM     16  N   LIG    1       -2.337   3.155   0.899  0.00  0.00    -0.274 N 
ATOM     17  C   LIG    1       -3.658   3.578   1.364  0.00  0.00    +0.135 C 
ATOM     18  C   LIG    1       -1.345   4.226   0.758  0.00  0.00    +0.135 C 
ATOM     19  O   LIG    1       -2.956   0.926   0.545  0.00  0.00    -0.226 OA
ENDBRANCH  14  15
ENDBRANCH   9  14
BRANCH   9  20
ATOM     20  C   LIG    1        1.221   0.798  -0.742  0.00  0.00    +0.102 C 
BRANCH  20  21
ATOM     21  C   LIG    1        2.144  -0.327  -1.236  0.00  0.00    +0.002 A 
ATOM     22  C   LIG    1        2.326  -0.594  -2.605  0.00  0.00    +0.162 A 
ATOM     23  C   LIG    1        3.164  -1.637  -3.029  0.00  0.00    +0.162 A 
ATOM     24  C   LIG    1        3.832  -2.406  -2.061  0.00  0.00    +0.049 A 
ATOM     25  C   LIG    1        3.671  -2.134  -0.705  0.00  0.00    +0.004 A 
ATOM     26  C   LIG    1        2.836  -1.098  -0.296  0.00  0.00    +0.007 A 
BRANCH  22  27
ATOM     27  O   LIG    1        1.694   0.172  -3.554  0.00  0.00    -0.503 OA
ATOM     28  H   LIG    1        1.893  -0.116  -4.448  0.00  0.00    +0.292 HD
ENDBRANCH  22  27
BRANCH  23  29
ATOM     29  O   LIG    1        3.287  -1.845  -4.393  0.00  0.00    -0.491 OA
ATOM     30  C   LIG    1        4.128  -2.891  -4.868  0.00  0.00    +0.277 C 
ENDBRANCH  23  29
ENDBRANCH  20  21
ENDBRANCH   9  20
TORSDOF 7
