REMARK  Name = DB18510
REMARK                            x       y       z     vdW  Elec       q    Type
REMARK                         _______ _______ _______ _____ _____    ______ ____
ROOT
ATOM      1  C   LIG    1        3.372  -0.902   0.636  0.00  0.00    +0.109 A 
ATOM      2  C   LIG    1        4.085  -2.098   0.854  0.00  0.00    +0.060 A 
ATOM      3  C   LIG    1        5.517  -2.108   0.894  0.00  0.00    +0.007 A 
ATOM      4  C   LIG    1        6.262  -3.309   1.110  0.00  0.00    +0.010 A 
ATOM      5  C   LIG    1        7.651  -3.300   1.145  0.00  0.00    +0.001 A 
ATOM      6  C   LIG    1        8.347  -2.115   0.968  0.00  0.00    +0.001 A 
ATOM      7  C   LIG    1        7.664  -0.924   0.755  0.00  0.00    +0.010 A 
ATOM      8  C   LIG    1        6.239  -0.884   0.712  0.00  0.00    +0.011 A 
ATOM      9  C   LIG    1        5.507   0.322   0.496  0.00  0.00    +0.127 A 
ATOM     10  C   LIG    1        4.114   0.278   0.465  0.00  0.00    +0.061 A 
ENDROOT
BRANCH   2  11
ATOM     11  N   LIG    1        3.374  -3.297   1.031  0.00  0.00    -0.356 N 
ATOM     12  H   LIG    1        2.365  -3.280   0.999  0.00  0.00    +0.142 HD
ATOM     13  H   LIG    1        3.879  -4.157   1.185  0.00  0.00    +0.142 HD
ENDBRANCH   2  11
BRANCH   9  14
ATOM     14  S   LIG    1        6.339   1.914   0.259  0.00  0.00    +0.110 S 
ATOM     15  O   LIG    1        5.254   2.885   0.074  0.00  0.00    -0.142 OA
ATOM     16  O   LIG    1        7.154   1.674  -0.938  0.00  0.00    -0.142 OA
BRANCH  14  17
ATOM     17  O   LIG    1        7.092   2.071   1.509  0.00  0.00    -0.250 OA
ATOM     18  H   LIG    1        7.787   1.395   1.555  0.00  0.00    +0.245 HD
ENDBRANCH  14  17
ENDBRANCH   9  14
BRANCH   1  20
ATOM     19  N   LIG    1        1.349   0.153   0.367  0.00  0.00    -0.148 NA
ATOM     20  N   LIG    1        1.956  -0.941   0.601  0.00  0.00    -0.147 NA
BRANCH  19  24
ATOM     21  C   LIG    1       -2.841   0.193   0.206  0.00  0.00    +0.071 A 
ATOM     22  N   LIG    1       -2.120   1.324  -0.018  0.00  0.00    -0.253 NA
ATOM     23  C   LIG    1       -0.767   1.251   0.052  0.00  0.00    +0.141 A 
ATOM     24  C   LIG    1       -0.054   0.080   0.333  0.00  0.00    +0.104 A 
ATOM     25  C   LIG    1       -0.829  -1.078   0.553  0.00  0.00    +0.033 A 
ATOM     26  C   LIG    1       -2.222  -1.027   0.489  0.00  0.00    +0.030 A 
BRANCH  21  29
ATOM     27  C   LIG    1       -4.687  -0.622   2.462  0.00  0.00    +0.044 C 
ATOM     28  C   LIG    1       -5.199  -0.081   1.132  0.00  0.00    -0.039 A 
ATOM     29  C   LIG    1       -4.323   0.329   0.103  0.00  0.00    +0.003 A 
ATOM     30  C   LIG    1       -4.875   0.868  -1.069  0.00  0.00    +0.013 A 
ATOM     31  C   LIG    1       -6.253   0.993  -1.228  0.00  0.00    +0.039 A 
ATOM     32  C   LIG    1       -7.108   0.580  -0.211  0.00  0.00    +0.124 A 
ATOM     33  F   LIG    1       -8.447   0.699  -0.362  0.00  0.00    -0.205 F 
ATOM     34  C   LIG    1       -6.582   0.050   0.964  0.00  0.00    +0.042 A 
ENDBRANCH  21  29
ENDBRANCH  19  24
ENDBRANCH   1  20
TORSDOF 6
