REMARK  Name = DB18400
REMARK                            x       y       z     vdW  Elec       q    Type
REMARK                         _______ _______ _______ _____ _____    ______ ____
ROOT
ATOM      1  O   LIG    1       -2.087   6.647  -2.246  0.00  0.00    -0.267 OA
ATOM      2  C   LIG    1       -1.808   5.617  -1.631  0.00  0.00    +0.260 A 
ATOM      3  C   LIG    1       -1.183   4.369  -2.171  0.00  0.00    +0.049 A 
ATOM      4  C   LIG    1       -1.063   3.489  -1.130  0.00  0.00    +0.018 A 
ATOM      5  C   LIG    1       -0.519   2.195  -1.228  0.00  0.00    -0.012 A 
ATOM      6  C   LIG    1       -0.075   1.810  -2.527  0.00  0.00    +0.009 A 
ATOM      7  C   LIG    1       -0.192   2.705  -3.606  0.00  0.00    +0.001 A 
ATOM      8  C   LIG    1       -0.483   1.438  -0.015  0.00  0.00    -0.035 A 
ATOM      9  C   LIG    1       -0.993   2.007   1.169  0.00  0.00    +0.006 A 
ATOM     10  C   LIG    1       -1.521   3.307   1.195  0.00  0.00    +0.027 A 
ATOM     11  C   LIG    1       -1.553   4.058   0.018  0.00  0.00    +0.054 A 
ATOM     12  C   LIG    1       -0.744   3.985  -3.438  0.00  0.00    +0.014 A 
ATOM     13  N   LIG    1       -2.000   5.353  -0.302  0.00  0.00    -0.296 N 
ENDROOT
BRANCH  13  14
ATOM     14  C   LIG    1       -2.622   6.338   0.608  0.00  0.00    +0.177 C 
ATOM     15  C   LIG    1       -1.650   6.744   1.754  0.00  0.00    +0.242 C 
ATOM     16  O   LIG    1       -0.429   6.588   1.724  0.00  0.00    -0.273 OA
ATOM     17  N   LIG    1       -2.253   7.338   2.812  0.00  0.00    -0.255 N 
ATOM     18  H   LIG    1       -1.610   7.657   3.522  0.00  0.00    +0.158 HD
ATOM     19  C   LIG    1       -3.556   7.567   3.108  0.00  0.00    +0.219 C 
ATOM     20  O   LIG    1       -3.885   8.171   4.127  0.00  0.00    -0.275 OA
ATOM     21  C   LIG    1       -4.580   7.039   2.076  0.00  0.00    +0.099 C 
ATOM     22  C   LIG    1       -3.980   5.917   1.206  0.00  0.00    +0.044 C 
ENDBRANCH  13  14
BRANCH   8  23
ATOM     23  C   LIG    1        0.075   0.017  -0.007  0.00  0.00    +0.070 C 
BRANCH  23  24
ATOM     24  C   LIG    1        1.595  -0.041   0.083  0.00  0.00    -0.043 A 
ATOM     25  C   LIG    1        2.234   0.339   1.266  0.00  0.00    +0.004 A 
ATOM     26  C   LIG    1        3.622   0.282   1.357  0.00  0.00    +0.005 A 
ATOM     27  C   LIG    1        4.375  -0.169   0.270  0.00  0.00    -0.033 A 
ATOM     28  C   LIG    1        3.737  -0.545  -0.914  0.00  0.00    +0.005 A 
ATOM     29  C   LIG    1        2.349  -0.492  -1.004  0.00  0.00    +0.004 A 
BRANCH  27  30
ATOM     30  C   LIG    1        5.897  -0.177   0.354  0.00  0.00    +0.119 C 
BRANCH  30  31
ATOM     31  N   LIG    1        6.469   1.172   0.296  0.00  0.00    -0.294 NA
ATOM     32  C   LIG    1        6.310   1.800  -1.025  0.00  0.00    +0.113 C 
ATOM     33  C   LIG    1        6.985   3.187  -1.074  0.00  0.00    +0.175 C 
ATOM     34  O   LIG    1        8.353   3.077  -0.697  0.00  0.00    -0.377 OA
ATOM     35  C   LIG    1        8.513   2.558   0.619  0.00  0.00    +0.175 C 
ATOM     36  C   LIG    1        7.876   1.156   0.718  0.00  0.00    +0.113 C 
ENDBRANCH  30  31
ENDBRANCH  27  30
ENDBRANCH  23  24
ENDBRANCH   8  23
TORSDOF 5
