REMARK  Name = DB18282
REMARK                            x       y       z     vdW  Elec       q    Type
REMARK                         _______ _______ _______ _____ _____    ______ ____
ROOT
ATOM      1  C   LIG    1        1.548  -0.076   0.041  0.00  0.00    +0.072 C 
ATOM      2  N   LIG    1        2.210   0.957  -0.561  0.00  0.00    -0.284 NA
ATOM      3  H   LIG    1        1.922   1.821  -0.101  0.00  0.00    +0.125 HD
ATOM      4  C   LIG    1        3.544   0.900  -0.524  0.00  0.00    +0.112 C 
ATOM      5  N   LIG    1        4.418   1.822  -1.063  0.00  0.00    -0.287 NA
ATOM      6  H   LIG    1        4.146   2.661  -1.555  0.00  0.00    +0.124 HD
ATOM      7  C   LIG    1        5.720   1.419  -0.823  0.00  0.00    +0.053 C 
ATOM      8  C   LIG    1        5.660   0.190  -0.105  0.00  0.00    +0.027 C 
ATOM      9  C   LIG    1        6.864  -0.436   0.261  0.00  0.00    +0.081 C 
ATOM     10  N   LIG    1        8.021   0.158  -0.085  0.00  0.00    -0.307 NA
ATOM     11  H   LIG    1        8.884  -0.297   0.179  0.00  0.00    +0.123 HD
ATOM     12  C   LIG    1        8.101   1.320  -0.762  0.00  0.00    +0.076 C 
ATOM     13  C   LIG    1        6.949   2.005  -1.163  0.00  0.00    +0.036 C 
ATOM     14  C   LIG    1        4.303  -0.128   0.081  0.00  0.00    +0.028 C 
ATOM     15  C   LIG    1        3.609  -1.179   0.699  0.00  0.00    +0.009 C 
ATOM     16  C   LIG    1        2.214  -1.139   0.674  0.00  0.00    +0.025 C 
ENDROOT
BRANCH   1  22
ATOM     17  F   LIG    1       -2.856  -2.208  -0.102  0.00  0.00    -0.184 F 
ATOM     18  C   LIG    1       -2.123  -1.072  -0.068  0.00  0.00    +0.214 A 
ATOM     19  N   LIG    1       -2.767   0.122  -0.072  0.00  0.00    -0.228 NA
ATOM     20  C   LIG    1       -2.016   1.250  -0.042  0.00  0.00    +0.114 A 
ATOM     21  C   LIG    1       -0.622   1.230  -0.005  0.00  0.00    +0.025 A 
ATOM     22  C   LIG    1        0.054  -0.003   0.002  0.00  0.00    -0.019 A 
ATOM     23  C   LIG    1       -0.729  -1.169  -0.032  0.00  0.00    +0.064 A 
ENDBRANCH   1  22
TORSDOF 1
