REMARK  Name = DB18060
REMARK                            x       y       z     vdW  Elec       q    Type
REMARK                         _______ _______ _______ _____ _____    ______ ____
ROOT
ATOM      1  C   LIG    1        1.622  -0.235  -0.043  0.00  0.00    +0.078 A 
ATOM      2  C   LIG    1        2.340  -1.383  -0.489  0.00  0.00    +0.145 A 
ATOM      3  N   LIG    1        3.709  -1.398  -0.570  0.00  0.00    -0.208 NA
ATOM      4  C   LIG    1        4.370  -0.301  -0.204  0.00  0.00    +0.202 A 
ATOM      5  N   LIG    1        5.721  -0.095  -0.196  0.00  0.00    -0.175 NA
ATOM      6  C   LIG    1        5.845   1.142   0.254  0.00  0.00    +0.293 A 
ATOM      7  O   LIG    1        4.665   1.774   0.551  0.00  0.00    -0.423 OA
ATOM      8  C   LIG    1        3.719   0.845   0.252  0.00  0.00    +0.178 A 
ATOM      9  C   LIG    1        2.332   0.915   0.353  0.00  0.00    +0.077 A 
ENDROOT
BRANCH   6  10
ATOM     10  N   LIG    1        7.008   1.832   0.470  0.00  0.00    -0.281 N 
ATOM     11  C   LIG    1        8.312   1.315   0.023  0.00  0.00    +0.137 C 
ATOM     12  C   LIG    1        9.498   1.879   0.833  0.00  0.00    +0.179 C 
ATOM     13  O   LIG    1        9.447   3.298   0.848  0.00  0.00    -0.377 OA
ATOM     14  C   LIG    1        8.260   3.777   1.461  0.00  0.00    +0.179 C 
ATOM     15  C   LIG    1        7.024   3.290   0.676  0.00  0.00    +0.137 C 
ENDBRANCH   6  10
BRANCH   2  16
ATOM     16  N   LIG    1        1.744  -2.608  -0.873  0.00  0.00    -0.311 N 
ATOM     17  C   LIG    1        0.331  -3.001  -0.839  0.00  0.00    +0.138 C 
ATOM     18  C   LIG    1        0.193  -4.490  -1.172  0.00  0.00    +0.133 C 
ATOM     19  C   LIG    1        1.385  -4.680  -2.093  0.00  0.00    +0.052 C 
ATOM     20  C   LIG    1        2.437  -3.721  -1.535  0.00  0.00    +0.109 C 
BRANCH  18  21
ATOM     21  O   LIG    1        0.327  -5.274   0.000  0.00  0.00    -0.390 OA
ATOM     22  H   LIG    1       -0.235  -4.903   0.684  0.00  0.00    +0.210 HD
ENDBRANCH  18  21
ENDBRANCH   2  16
BRANCH   1  24
ATOM     23  C   LIG    1       -0.625   0.755  -0.310  0.00  0.00    +0.270 C 
ATOM     24  N   LIG    1        0.217  -0.238   0.056  0.00  0.00    -0.277 N 
ATOM     25  H   LIG    1       -0.194  -1.099   0.384  0.00  0.00    +0.155 HD
ATOM     26  O   LIG    1       -0.271   1.826  -0.810  0.00  0.00    -0.268 OA
BRANCH  23  30
ATOM     27  C   LIG    1       -4.095   0.763   0.187  0.00  0.00    +0.228 A 
ATOM     28  O   LIG    1       -3.943  -0.581   0.301  0.00  0.00    -0.443 OA
ATOM     29  C   LIG    1       -2.614  -0.767   0.133  0.00  0.00    +0.230 A 
ATOM     30  C   LIG    1       -2.019   0.481  -0.054  0.00  0.00    +0.164 A 
ATOM     31  N   LIG    1       -2.970   1.406  -0.043  0.00  0.00    -0.204 NA
BRANCH  27  37
ATOM     32  C   LIG    1       -7.265   4.707   0.106  0.00  0.00    +0.065 C 
ATOM     33  C   LIG    1       -6.973   3.229   0.280  0.00  0.00    +0.039 A 
ATOM     34  N   LIG    1       -8.044   2.446   0.569  0.00  0.00    -0.260 NA
ATOM     35  C   LIG    1       -7.829   1.116   0.733  0.00  0.00    +0.112 A 
ATOM     36  C   LIG    1       -6.567   0.531   0.617  0.00  0.00    +0.033 A 
ATOM     37  C   LIG    1       -5.465   1.345   0.319  0.00  0.00    +0.040 A 
ATOM     38  C   LIG    1       -5.677   2.720   0.148  0.00  0.00    +0.036 A 
ENDBRANCH  27  37
ENDBRANCH  23  30
ENDBRANCH   1  24
TORSDOF 6
