REMARK  Name = DB18075
REMARK                            x       y       z     vdW  Elec       q    Type
REMARK                         _______ _______ _______ _____ _____    ______ ____
ROOT
ATOM      1  C   LIG    1        1.640  -0.318  -0.113  0.00  0.00    +0.136 C 
ENDROOT
BRANCH   1   2
ATOM      2  N   LIG    1        2.221  -0.266  -1.477  0.00  0.00    -0.225 N 
ATOM      3  C   LIG    1        2.907   0.812  -1.927  0.00  0.00    +0.257 C 
ATOM      4  O   LIG    1        3.162   1.849  -1.313  0.00  0.00    -0.269 OA
ATOM      5  C   LIG    1        3.275   0.483  -3.257  0.00  0.00    +0.078 A 
ATOM      6  C   LIG    1        3.980   1.042  -4.327  0.00  0.00    +0.085 A 
ATOM      7  S   LIG    1        3.988  -0.025  -5.708  0.00  0.00    -0.080 S 
ATOM      8  C   LIG    1        3.052  -1.198  -4.836  0.00  0.00    +0.061 A 
ATOM      9  C   LIG    1        2.755  -0.778  -3.544  0.00  0.00    +0.058 A 
ATOM     10  C   LIG    1        2.064  -1.245  -2.401  0.00  0.00    +0.255 C 
ATOM     11  O   LIG    1        1.457  -2.309  -2.273  0.00  0.00    -0.269 OA
BRANCH   6  12
ATOM     12  N   LIG    1        4.605   2.286  -4.308  0.00  0.00    -0.280 N 
ATOM     13  H   LIG    1        4.531   2.789  -3.435  0.00  0.00    +0.155 HD
ATOM     14  C   LIG    1        5.288   2.887  -5.307  0.00  0.00    +0.214 C 
ATOM     15  O   LIG    1        5.471   2.417  -6.431  0.00  0.00    -0.276 OA
ATOM     16  C   LIG    1        5.868   4.260  -4.978  0.00  0.00    +0.109 C 
ENDBRANCH   6  12
ENDBRANCH   1   2
BRANCH   1  21
ATOM     17  C   LIG    1       -2.113  -1.223  -0.003  0.00  0.00    +0.162 A 
ATOM     18  C   LIG    1       -2.698   0.048  -0.104  0.00  0.00    +0.162 A 
ATOM     19  C   LIG    1       -1.870   1.178  -0.214  0.00  0.00    +0.050 A 
ATOM     20  C   LIG    1       -0.484   1.046  -0.223  0.00  0.00    +0.009 A 
ATOM     21  C   LIG    1        0.108  -0.213  -0.125  0.00  0.00    -0.021 A 
ATOM     22  C   LIG    1       -0.712  -1.340  -0.007  0.00  0.00    +0.055 A 
BRANCH  18  23
ATOM     23  O   LIG    1       -4.080   0.109  -0.089  0.00  0.00    -0.491 OA
ATOM     24  C   LIG    1       -4.728   1.374  -0.178  0.00  0.00    +0.277 C 
ENDBRANCH  18  23
BRANCH  17  25
ATOM     25  O   LIG    1       -2.972  -2.305   0.097  0.00  0.00    -0.489 OA
BRANCH  25  27
ATOM     26  C   LIG    1       -3.602  -4.620   0.231  0.00  0.00    +0.048 C 
ATOM     27  C   LIG    1       -2.441  -3.624   0.173  0.00  0.00    +0.226 C 
ENDBRANCH  25  27
ENDBRANCH  17  25
ENDBRANCH   1  21
BRANCH   1  28
ATOM     28  C   LIG    1        2.190  -1.470   0.776  0.00  0.00    +0.193 C 
BRANCH  28  29
ATOM     29  S   LIG    1        4.058  -1.333   1.090  0.00  0.00    -0.032 S 
ATOM     30  O   LIG    1        4.756  -1.284  -0.199  0.00  0.00    -0.175 OA
ATOM     31  O   LIG    1        4.416  -2.370   2.062  0.00  0.00    -0.175 OA
ATOM     32  C   LIG    1        4.274   0.339   1.938  0.00  0.00    +0.194 C 
ENDBRANCH  28  29
ENDBRANCH   1  28
TORSDOF 8
