REMARK  Name = DB18482
REMARK                            x       y       z     vdW  Elec       q    Type
REMARK                         _______ _______ _______ _____ _____    ______ ____
ROOT
ATOM      1  CA  GLU A  6        4.830  -0.280  -2.500  0.00  0.00    +0.159 C 
ENDROOT
BRANCH   1   2
ATOM      2  C   GLU A  6        6.047  -1.205  -2.659  0.00  0.00    +0.234 C 
ATOM      3  N   SER A  7        5.831  -2.307  -3.396  0.00  0.00    -0.301 N 
ATOM      4  H   SER A  7        4.912  -2.467  -3.783  0.00  0.00    +0.150 HD
ATOM      5  O   GLU A  6        7.129  -0.911  -2.148  0.00  0.00    -0.274 OA
BRANCH   3   6
ATOM      6  CA  SER A  7        6.843  -3.310  -3.738  0.00  0.00    +0.184 C 
BRANCH   6   7
ATOM      7  C   SER A  7        7.879  -2.844  -4.784  0.00  0.00    +0.236 C 
ATOM      8  N   ASN A  8        7.582  -1.752  -5.513  0.00  0.00    -0.302 N 
ATOM      9  H   ASN A  8        6.706  -1.276  -5.351  0.00  0.00    +0.150 HD
ATOM     10  O   SER A  7        8.923  -3.487  -4.902  0.00  0.00    -0.274 OA
BRANCH   8  11
ATOM     11  CA  ASN A  8        8.453  -1.154  -6.528  0.00  0.00    +0.168 C 
BRANCH  11  12
ATOM     12  C   ASN A  8        9.662  -0.469  -5.873  0.00  0.00    +0.234 C 
ATOM     13  N   ILE A  9       10.861  -0.796  -6.378  0.00  0.00    -0.302 N 
ATOM     14  H   ILE A  9       10.915  -1.448  -7.148  0.00  0.00    +0.150 HD
ATOM     15  O   ASN A  8        9.488   0.321  -4.944  0.00  0.00    -0.274 OA
BRANCH  13  16
ATOM     16  CA  ILE A  9       12.138  -0.284  -5.883  0.00  0.00    +0.162 C 
BRANCH  16  17
ATOM     17  C   ILE A  9       12.416   1.116  -6.462  0.00  0.00    +0.234 C 
ATOM     18  N   SER A 10       12.623   2.090  -5.561  0.00  0.00    -0.301 N 
ATOM     19  H   SER A 10       12.552   1.878  -4.577  0.00  0.00    +0.150 HD
ATOM     20  O   ILE A  9       12.456   1.274  -7.683  0.00  0.00    -0.274 OA
BRANCH  18  21
ATOM     21  CA  SER A 10       13.006   3.464  -5.892  0.00  0.00    +0.184 C 
BRANCH  21  22
ATOM     22  C   SER A 10       14.483   3.557  -6.311  0.00  0.00    +0.236 C 
ATOM     23  N   PHE A 11       14.776   4.498  -7.225  0.00  0.00    -0.302 N 
ATOM     24  H   PHE A 11       14.034   5.074  -7.593  0.00  0.00    +0.150 HD
ATOM     25  O   SER A 10       15.315   2.807  -5.794  0.00  0.00    -0.274 OA
BRANCH  23  26
ATOM     26  CA  PHE A 11       16.119   4.787  -7.731  0.00  0.00    +0.163 C 
BRANCH  26  27
ATOM     27  C   PHE A 11       17.064   5.303  -6.631  0.00  0.00    +0.234 C 
ATOM     28  N   LYS A 12       18.162   4.562  -6.406  0.00  0.00    -0.302 N 
ATOM     29  H   LYS A 12       18.297   3.707  -6.926  0.00  0.00    +0.150 HD
ATOM     30  O   PHE A 11       16.795   6.351  -6.044  0.00  0.00    -0.274 OA
BRANCH  28  31
ATOM     31  CA  LYS A 12       19.268   4.968  -5.541  0.00  0.00    +0.159 C 
BRANCH  31  32
ATOM     32  C   LYS A 12       20.174   5.959  -6.289  0.00  0.00    +0.234 C 
ATOM     33  N   GLU A 13       20.621   7.005  -5.574  0.00  0.00    -0.302 N 
ATOM     34  H   GLU A 13       20.346   7.086  -4.606  0.00  0.00    +0.150 HD
ATOM     35  O   LYS A 12       20.449   5.745  -7.470  0.00  0.00    -0.274 OA
BRANCH  33  36
ATOM     36  CA  GLU A 13       21.468   8.095  -6.068  0.00  0.00    +0.159 C 
BRANCH  36  37
ATOM     37  C   GLU A 13       22.805   7.612  -6.668  0.00  0.00    +0.234 C 
ATOM     38  N   LYS A 14       23.211   8.254  -7.777  0.00  0.00    -0.301 N 
ATOM     39  H   LYS A 14       22.657   9.021  -8.129  0.00  0.00    +0.150 HD
ATOM     40  O   GLU A 13       23.416   6.685  -6.133  0.00  0.00    -0.274 OA
BRANCH  38  41
ATOM     41  CA  LYS A 14       24.424   7.943  -8.556  0.00  0.00    +0.182 C 
BRANCH  41  42
ATOM     42  C   LYS A 14       25.219   9.281  -8.844  0.00  0.00    +0.325 C 
ATOM     43  OXT LYS A 14       25.564   9.503 -10.029  0.00  0.00    -0.249 OA
BRANCH  42  44
ATOM     44  O   LYS A 14       25.490   9.962  -7.826  0.00  0.00    -0.479 OA
ATOM     45  H   LYS A 14       25.959  10.768  -7.913  0.00  0.00    +0.295 HD
ENDBRANCH  42  44
ENDBRANCH  41  42
BRANCH  41  46
ATOM     46  CB  LYS A 14       24.035   7.149  -9.844  0.00  0.00    +0.034 C 
BRANCH  46  47
ATOM     47  CG  LYS A 14       23.420   5.767  -9.565  0.00  0.00    +0.000 C 
BRANCH  47  48
ATOM     48  CD  LYS A 14       23.105   4.978 -10.846  0.00  0.00    -0.019 C 
BRANCH  48  49
ATOM     49  CE  LYS A 14       22.357   3.657 -10.591  0.00  0.00    -0.086 C 
BRANCH  49  50
ATOM     50  NZ  LYS A 14       23.181   2.669  -9.872  0.00  0.00    +0.378 N 
ATOM     51  HZ1 LYS A 14       24.012   2.469 -10.410  0.00  0.00    -0.090 HD
ATOM     52  HZ2 LYS A 14       23.445   3.048  -8.974  0.00  0.00    -0.090 HD
ATOM     53  HZ3 LYS A 14       22.651   1.820  -9.738  0.00  0.00    -0.090 HD
ENDBRANCH  49  50
ENDBRANCH  48  49
ENDBRANCH  47  48
ENDBRANCH  46  47
ENDBRANCH  41  46
ENDBRANCH  38  41
ENDBRANCH  36  37
BRANCH  36  54
ATOM     54  CB  GLU A 13       21.652   9.111  -4.919  0.00  0.00    +0.043 C 
BRANCH  54  55
ATOM     55  CG  GLU A 13       22.544  10.335  -5.243  0.00  0.00    +0.123 C 
BRANCH  55  56
ATOM     56  CD  GLU A 13       22.607  11.417  -4.148  0.00  0.00    +0.305 C 
ATOM     57  OE2 GLU A 13       23.236  12.459  -4.436  0.00  0.00    -0.251 OA
BRANCH  56  58
ATOM     58  OE1 GLU A 13       22.043  11.212  -3.049  0.00  0.00    -0.481 OA
ATOM     59  HE1 GLU A 13       22.076  11.864  -2.376  0.00  0.00    +0.295 HD
ENDBRANCH  56  58
ENDBRANCH  55  56
ENDBRANCH  54  55
ENDBRANCH  36  54
ENDBRANCH  33  36
ENDBRANCH  31  32
BRANCH  31  60
ATOM     60  CB  LYS A 12       20.031   3.706  -5.082  0.00  0.00    +0.032 C 
BRANCH  60  61
ATOM     61  CG  LYS A 12       21.205   3.986  -4.125  0.00  0.00    +0.000 C 
BRANCH  61  62
ATOM     62  CD  LYS A 12       21.833   2.702  -3.565  0.00  0.00    -0.019 C 
BRANCH  62  63
ATOM     63  CE  LYS A 12       22.993   2.995  -2.599  0.00  0.00    -0.086 C 
BRANCH  63  64
ATOM     64  NZ  LYS A 12       23.585   1.758  -2.061  0.00  0.00    +0.378 N 
ATOM     65  HZ1 LYS A 12       22.881   1.237  -1.558  0.00  0.00    -0.090 HD
ATOM     66  HZ2 LYS A 12       23.942   1.195  -2.820  0.00  0.00    -0.090 HD
ATOM     67  HZ3 LYS A 12       24.341   1.992  -1.433  0.00  0.00    -0.090 HD
ENDBRANCH  63  64
ENDBRANCH  62  63
ENDBRANCH  61  62
ENDBRANCH  60  61
ENDBRANCH  31  60
ENDBRANCH  28  31
ENDBRANCH  26  27
BRANCH  26  68
ATOM     68  CB  PHE A 11       16.012   5.760  -8.930  0.00  0.00    +0.067 C 
BRANCH  68  69
ATOM     69  CG  PHE A 11       17.326   6.271  -9.506  0.00  0.00    -0.045 A 
ATOM     70  CD2 PHE A 11       18.090   5.451 -10.364  0.00  0.00    +0.004 A 
ATOM     71  CE2 PHE A 11       19.326   5.886 -10.822  0.00  0.00    +0.000 A 
ATOM     72  CZ  PHE A 11       19.833   7.113 -10.415  0.00  0.00    +0.000 A 
ATOM     73  CE1 PHE A 11       19.111   7.915  -9.540  0.00  0.00    +0.000 A 
ATOM     74  CD1 PHE A 11       17.870   7.500  -9.074  0.00  0.00    +0.004 A 
ENDBRANCH  68  69
ENDBRANCH  26  68
ENDBRANCH  23  26
ENDBRANCH  21  22
BRANCH  21  75
ATOM     75  CB  SER A 10       12.732   4.369  -4.674  0.00  0.00    +0.187 C 
BRANCH  75  76
ATOM     76  OG  SER A 10       11.362   4.705  -4.613  0.00  0.00    -0.393 OA
ATOM     77  H   SER A 10       11.216   5.263  -3.845  0.00  0.00    +0.209 HD
ENDBRANCH  75  76
ENDBRANCH  21  75
ENDBRANCH  18  21
ENDBRANCH  16  17
BRANCH  16  78
ATOM     78  CB  ILE A  9       13.308  -1.251  -6.248  0.00  0.00    +0.015 C 
ATOM     79  CG2 ILE A  9       14.722  -0.680  -5.980  0.00  0.00    +0.010 C 
BRANCH  78  80
ATOM     80  CG1 ILE A  9       13.140  -2.607  -5.519  0.00  0.00    +0.002 C 
ATOM     81  CD1 ILE A  9       14.046  -3.726  -6.054  0.00  0.00    +0.004 C 
ENDBRANCH  78  80
ENDBRANCH  16  78
ENDBRANCH  13  16
ENDBRANCH  11  12
BRANCH  11  82
ATOM     82  CB  ASN A  8        7.651  -0.139  -7.375  0.00  0.00    +0.127 C 
BRANCH  82  83
ATOM     83  CG  ASN A  8        6.472  -0.762  -8.132  0.00  0.00    +0.213 C 
ATOM     84  OD1 ASN A  8        6.614  -1.805  -8.768  0.00  0.00    -0.276 OA
ATOM     85  ND2 ASN A  8        5.306  -0.115  -8.078  0.00  0.00    -0.329 N 
ATOM     86 HD21 ASN A  8        4.498  -0.478  -8.562  0.00  0.00    +0.145 HD
ATOM     87 HD22 ASN A  8        5.219   0.741  -7.546  0.00  0.00    +0.145 HD
ENDBRANCH  82  83
ENDBRANCH  11  82
ENDBRANCH   8  11
ENDBRANCH   6   7
BRANCH   6  88
ATOM     88  CB  SER A  7        6.123  -4.606  -4.170  0.00  0.00    +0.187 C 
BRANCH  88  89
ATOM     89  OG  SER A  7        5.487  -4.475  -5.428  0.00  0.00    -0.393 OA
ATOM     90  H   SER A  7        5.072  -5.312  -5.649  0.00  0.00    +0.209 HD
ENDBRANCH  88  89
ENDBRANCH   6  88
ENDBRANCH   3   6
ENDBRANCH   1   2
BRANCH   1  92
ATOM     91  C   ASP A  5        3.990   0.924  -0.497  0.00  0.00    +0.234 C 
ATOM     92  N   GLU A  6        4.984   0.586  -1.331  0.00  0.00    -0.302 N 
ATOM     93  H   GLU A  6        5.905   0.976  -1.192  0.00  0.00    +0.150 HD
ATOM     94  O   ASP A  5        2.841   0.483  -0.567  0.00  0.00    -0.274 OA
BRANCH  91  95
ATOM     95  CA  ASP A  5        4.363   1.923   0.614  0.00  0.00    +0.169 C 
BRANCH  95  97
ATOM     96  C   ASN A  4        2.650   3.694   0.108  0.00  0.00    +0.234 C 
ATOM     97  N   ASP A  5        3.255   2.826   0.940  0.00  0.00    -0.302 N 
ATOM     98  H   ASP A  5        2.904   2.744   1.883  0.00  0.00    +0.150 HD
ATOM     99  O   ASN A  4        3.003   3.894  -1.054  0.00  0.00    -0.274 OA
BRANCH  96 100
ATOM    100  CA  ASN A  4        1.429   4.474   0.654  0.00  0.00    +0.168 C 
BRANCH 100 102
ATOM    101  C   ASN A  3        0.396   2.863   2.272  0.00  0.00    +0.234 C 
ATOM    102  N   ASN A  4        0.962   4.048   1.982  0.00  0.00    -0.302 N 
ATOM    103  H   ASN A  4        1.146   4.697   2.733  0.00  0.00    +0.150 HD
ATOM    104  O   ASN A  3        0.148   1.996   1.432  0.00  0.00    -0.274 OA
BRANCH 101 105
ATOM    105  CA  ASN A  3        0.098   2.610   3.766  0.00  0.00    +0.168 C 
BRANCH 105 107
ATOM    106  C   GLY A  2       -2.043   1.337   3.707  0.00  0.00    +0.231 C 
ATOM    107  N   ASN A  3       -0.732   1.422   3.979  0.00  0.00    -0.302 N 
ATOM    108  H   ASN A  3       -0.252   0.616   4.353  0.00  0.00    +0.150 HD
ATOM    109  O   GLY A  2       -2.697   2.270   3.236  0.00  0.00    -0.274 OA
BRANCH 106 110
ATOM    110  CA  GLY A  2       -2.689  -0.026   4.003  0.00  0.00    +0.200 C 
BRANCH 110 112
ATOM    111  C   UNK A  1       -4.928   0.605   4.881  0.00  0.00    +0.231 C 
ATOM    112  N   GLY A  2       -4.149   0.040   3.942  0.00  0.00    -0.305 N 
ATOM    113  H   GLY A  2       -4.583  -0.350   3.119  0.00  0.00    +0.149 HD
ATOM    114  O   UNK A  1       -4.494   1.123   5.914  0.00  0.00    -0.274 OA
BRANCH 111 115
ATOM    115  C   UNK A  1       -6.444   0.592   4.588  0.00  0.00    +0.148 C 
BRANCH 115 116
ATOM    116  N   UNK A  1       -7.112   0.018   5.769  0.00  0.00    -0.319 NA
ATOM    117  H   UNK A  1       -6.929  -0.973   5.848  0.00  0.00    +0.119 HD
ATOM    118  H   UNK A  1       -8.114   0.132   5.715  0.00  0.00    +0.119 HD
ENDBRANCH 115 116
BRANCH 115 119
ATOM    119  C   UNK A  1       -6.980   2.010   4.282  0.00  0.00    +0.097 C 
BRANCH 119 120
ATOM    120  S   UNK A  1       -6.443   2.629   2.653  0.00  0.00    -0.155 S 
BRANCH 120 121
ATOM    121  C   UNK A  1       -6.582   4.418   2.925  0.00  0.00    +0.117 C 
BRANCH 121 122
ATOM    122  C   UNK A  1       -5.404   5.060   3.696  0.00  0.00    +0.223 C 
BRANCH 122 123
ATOM    123  C   UNK A  1       -4.178   5.265   2.789  0.00  0.00    +0.277 C 
BRANCH 123 124
ATOM    124  O   UNK A  1       -3.037   5.588   3.577  0.00  0.00    -0.461 OA
BRANCH 124 125
ATOM    125  C   UNK A  1       -1.946   6.143   3.010  0.00  0.00    +0.307 C 
ATOM    126  O   UNK A  1       -1.819   6.433   1.818  0.00  0.00    -0.251 OA
BRANCH 125 127
ATOM    127  C   UNK A  1       -0.835   6.417   4.028  0.00  0.00    +0.120 C 
BRANCH 127 128
ATOM    128  C   UNK A  1       -0.127   7.776   3.853  0.00  0.00    +0.011 C 
BRANCH 128 129
ATOM    129  C   UNK A  1        1.143   7.912   4.716  0.00  0.00    +0.001 C 
BRANCH 129 130
ATOM    130  C   UNK A  1        0.885   7.920   6.234  0.00  0.00    +0.000 C 
BRANCH 130 131
ATOM    131  C   UNK A  1        2.184   8.016   7.053  0.00  0.00    +0.000 C 
BRANCH 131 132
ATOM    132  C   UNK A  1        1.938   8.007   8.572  0.00  0.00    +0.000 C 
BRANCH 132 133
ATOM    133  C   UNK A  1        3.240   8.088   9.390  0.00  0.00    -0.000 C 
BRANCH 133 134
ATOM    134  C   UNK A  1        2.995   8.079  10.909  0.00  0.00    -0.000 C 
BRANCH 134 135
ATOM    135  C   UNK A  1        4.297   8.152  11.726  0.00  0.00    -0.000 C 
BRANCH 135 136
ATOM    136  C   UNK A  1        4.053   8.137  13.246  0.00  0.00    -0.000 C 
BRANCH 136 137
ATOM    137  C   UNK A  1        5.356   8.199  14.063  0.00  0.00    -0.000 C 
BRANCH 137 138
ATOM    138  C   UNK A  1        5.113   8.174  15.583  0.00  0.00    -0.000 C 
BRANCH 138 139
ATOM    139  C   UNK A  1        6.419   8.224  16.400  0.00  0.00    -0.000 C 
BRANCH 139 141
ATOM    140  C   UNK A  1        5.590   6.994  18.518  0.00  0.00    +0.004 C 
ATOM    141  C   UNK A  1        6.211   8.269  17.926  0.00  0.00    -0.003 C 
ENDBRANCH 139 141
ENDBRANCH 138 139
ENDBRANCH 137 138
ENDBRANCH 136 137
ENDBRANCH 135 136
ENDBRANCH 134 135
ENDBRANCH 133 134
ENDBRANCH 132 133
ENDBRANCH 131 132
ENDBRANCH 130 131
ENDBRANCH 129 130
ENDBRANCH 128 129
ENDBRANCH 127 128
ENDBRANCH 125 127
ENDBRANCH 124 125
ENDBRANCH 123 124
ENDBRANCH 122 123
BRANCH 122 142
ATOM    142  O   UNK A  1       -5.786   6.341   4.199  0.00  0.00    -0.457 OA
BRANCH 142 143
ATOM    143  C   UNK A  1       -6.530   6.473   5.322  0.00  0.00    +0.307 C 
ATOM    144  O   UNK A  1       -6.930   5.550   6.035  0.00  0.00    -0.251 OA
BRANCH 143 145
ATOM    145  C   UNK A  1       -6.868   7.942   5.615  0.00  0.00    +0.120 C 
BRANCH 145 146
ATOM    146  C   UNK A  1       -8.132   8.174   6.474  0.00  0.00    +0.011 C 
BRANCH 146 147
ATOM    147  C   UNK A  1       -9.448   7.738   5.798  0.00  0.00    +0.001 C 
BRANCH 147 148
ATOM    148  C   UNK A  1      -10.698   8.107   6.617  0.00  0.00    +0.000 C 
BRANCH 148 149
ATOM    149  C   UNK A  1      -12.005   7.615   5.969  0.00  0.00    +0.000 C 
BRANCH 149 150
ATOM    150  C   UNK A  1      -13.262   8.045   6.747  0.00  0.00    +0.000 C 
BRANCH 150 151
ATOM    151  C   UNK A  1      -14.564   7.512   6.122  0.00  0.00    -0.000 C 
BRANCH 151 152
ATOM    152  C   UNK A  1      -15.826   7.995   6.858  0.00  0.00    -0.000 C 
BRANCH 152 153
ATOM    153  C   UNK A  1      -17.126   7.425   6.256  0.00  0.00    -0.000 C 
BRANCH 153 154
ATOM    154  C   UNK A  1      -18.411   7.854   6.992  0.00  0.00    -0.000 C 
BRANCH 154 155
ATOM    155  C   UNK A  1      -18.752   9.351   6.849  0.00  0.00    -0.000 C 
BRANCH 155 156
ATOM    156  C   UNK A  1      -20.077   9.732   7.539  0.00  0.00    -0.000 C 
BRANCH 156 157
ATOM    157  C   UNK A  1      -20.508  11.196   7.324  0.00  0.00    -0.000 C 
BRANCH 157 158
ATOM    158  C   UNK A  1      -19.571  12.238   7.967  0.00  0.00    -0.003 C 
ATOM    159  C   UNK A  1      -20.079  13.677   7.803  0.00  0.00    +0.004 C 
ENDBRANCH 157 158
ENDBRANCH 156 157
ENDBRANCH 155 156
ENDBRANCH 154 155
ENDBRANCH 153 154
ENDBRANCH 152 153
ENDBRANCH 151 152
ENDBRANCH 150 151
ENDBRANCH 149 150
ENDBRANCH 148 149
ENDBRANCH 147 148
ENDBRANCH 146 147
ENDBRANCH 145 146
ENDBRANCH 143 145
ENDBRANCH 142 143
ENDBRANCH 122 142
ENDBRANCH 121 122
ENDBRANCH 120 121
ENDBRANCH 119 120
ENDBRANCH 115 119
ENDBRANCH 111 115
ENDBRANCH 110 112
ENDBRANCH 106 110
ENDBRANCH 105 107
BRANCH 105 160
ATOM    160  CB  ASN A  3        1.420   2.458   4.566  0.00  0.00    +0.127 C 
BRANCH 160 161
ATOM    161  CG  ASN A  3        1.861   3.741   5.283  0.00  0.00    +0.213 C 
ATOM    162  OD1 ASN A  3        1.078   4.361   6.000  0.00  0.00    -0.276 OA
ATOM    163  ND2 ASN A  3        3.124   4.131   5.110  0.00  0.00    -0.329 N 
ATOM    164 HD21 ASN A  3        3.467   4.965   5.563  0.00  0.00    +0.145 HD
ATOM    165 HD22 ASN A  3        3.753   3.598   4.523  0.00  0.00    +0.145 HD
ENDBRANCH 160 161
ENDBRANCH 105 160
ENDBRANCH 101 105
ENDBRANCH 100 102
BRANCH 100 166
ATOM    166  CB  ASN A  4        1.663   6.008   0.640  0.00  0.00    +0.127 C 
BRANCH 166 167
ATOM    167  CG  ASN A  4        2.744   6.556   1.587  0.00  0.00    +0.213 C 
ATOM    168  OD1 ASN A  4        3.307   5.844   2.416  0.00  0.00    -0.276 OA
ATOM    169  ND2 ASN A  4        3.028   7.855   1.472  0.00  0.00    -0.329 N 
ATOM    170 HD21 ASN A  4        3.726   8.275   2.068  0.00  0.00    +0.145 HD
ATOM    171 HD22 ASN A  4        2.552   8.424   0.786  0.00  0.00    +0.145 HD
ENDBRANCH 166 167
ENDBRANCH 100 166
ENDBRANCH  96 100
ENDBRANCH  95  97
BRANCH  95 172
ATOM    172  CB  ASP A  5        4.868   1.141   1.858  0.00  0.00    +0.152 C 
BRANCH 172 173
ATOM    173  CG  ASP A  5        5.207   1.974   3.110  0.00  0.00    +0.307 C 
ATOM    174  OD2 ASP A  5        5.240   1.355   4.196  0.00  0.00    -0.251 OA
BRANCH 173 175
ATOM    175  OD1 ASP A  5        5.561   3.166   2.967  0.00  0.00    -0.481 OA
ATOM    176  HD1 ASP A  5        5.771   3.686   3.718  0.00  0.00    +0.295 HD
ENDBRANCH 173 175
ENDBRANCH 172 173
ENDBRANCH  95 172
ENDBRANCH  91  95
ENDBRANCH   1  92
BRANCH   1 177
ATOM    177  CB  GLU A  6        4.585   0.593  -3.753  0.00  0.00    +0.043 C 
BRANCH 177 178
ATOM    178  CG  GLU A  6        5.732   1.573  -4.113  0.00  0.00    +0.123 C 
BRANCH 178 179
ATOM    179  CD  GLU A  6        5.480   2.469  -5.339  0.00  0.00    +0.305 C 
ATOM    180  OE2 GLU A  6        6.385   3.284  -5.623  0.00  0.00    -0.251 OA
BRANCH 179 181
ATOM    181  OE1 GLU A  6        4.419   2.334  -5.990  0.00  0.00    -0.481 OA
ATOM    182  HE1 GLU A  6        4.257   2.875  -6.738  0.00  0.00    +0.295 HD
ENDBRANCH 179 181
ENDBRANCH 178 179
ENDBRANCH 177 178
ENDBRANCH   1 177
TORSDOF 101
