REMARK  Name = DB18125
REMARK                            x       y       z     vdW  Elec       q    Type
REMARK                         _______ _______ _______ _____ _____    ______ ____
ROOT
ATOM      1  N   LEU A  1        0.706  -0.559   0.096  0.00  0.00    -0.286 N 
ATOM      2  H   LEU A  1        1.197  -0.748   0.957  0.00  0.00    +0.151 HD
ATOM      3  C   UNK A  0        1.435  -0.274  -1.004  0.00  0.00    +0.304 C 
ATOM      4  N   UNK A  0        2.782  -0.171  -0.815  0.00  0.00    -0.272 N 
ATOM      5  C   UNK A  0        3.687   0.100  -1.951  0.00  0.00    +0.168 C 
ATOM      6  C   UNK A  0        4.998  -0.749  -1.955  0.00  0.00    +0.237 C 
ATOM      7  O   UNK A  0        5.717  -0.796  -2.956  0.00  0.00    -0.274 OA
ATOM      8  N   UNK A  0        5.282  -1.460  -0.819  0.00  0.00    -0.297 N 
ATOM      9  C   UNK A  0        4.385  -1.534   0.352  0.00  0.00    +0.127 C 
ATOM     10  C   UNK A  0        3.462  -0.312   0.478  0.00  0.00    +0.129 C 
ATOM     11  O   UNK A  0        0.904  -0.127  -2.108  0.00  0.00    -0.253 OA
ENDROOT
BRANCH   1  12
ATOM     12  CA  LEU A  1       -0.763  -0.692   0.179  0.00  0.00    +0.183 C 
BRANCH  12  13
ATOM     13  C   LEU A  1       -1.562   0.663   0.004  0.00  0.00    +0.325 C 
ATOM     14  OXT LEU A  1       -2.783   0.507  -0.233  0.00  0.00    -0.249 OA
BRANCH  13  15
ATOM     15  O   LEU A  1       -0.931   1.734   0.170  0.00  0.00    -0.479 OA
ATOM     16  H   LEU A  1       -1.370   2.557   0.075  0.00  0.00    +0.295 HD
ENDBRANCH  13  15
ENDBRANCH  12  13
BRANCH  12  17
ATOM     17  CB  LEU A  1       -1.150  -1.311   1.558  0.00  0.00    +0.036 C 
BRANCH  17  19
ATOM     18  CD1 LEU A  1       -0.675  -3.740   0.860  0.00  0.00    +0.007 C 
ATOM     19  CG  LEU A  1       -0.443  -2.642   1.919  0.00  0.00    -0.015 C 
ATOM     20  CD2 LEU A  1       -0.830  -3.107   3.338  0.00  0.00    +0.007 C 
ENDBRANCH  17  19
ENDBRANCH  12  17
ENDBRANCH   1  12
BRANCH   5  21
ATOM     21  C   UNK A  0        4.009   1.611  -2.137  0.00  0.00    +0.067 C 
BRANCH  21  22
ATOM     22  C   UNK A  0        4.543   1.996  -3.513  0.00  0.00    -0.045 A 
ATOM     23  C   UNK A  0        5.874   2.393  -3.664  0.00  0.00    +0.004 A 
ATOM     24  C   UNK A  0        6.356   2.741  -4.924  0.00  0.00    +0.000 A 
ATOM     25  C   UNK A  0        5.505   2.694  -6.026  0.00  0.00    +0.000 A 
ATOM     26  C   UNK A  0        4.175   2.303  -5.881  0.00  0.00    +0.000 A 
ATOM     27  C   UNK A  0        3.693   1.954  -4.622  0.00  0.00    +0.004 A 
ENDBRANCH  21  22
ENDBRANCH   5  21
BRANCH   8  28
ATOM     28  C   UNK A  0        6.466  -2.334  -0.783  0.00  0.00    +0.133 C 
BRANCH  28  29
ATOM     29  C   UNK A  0        7.720  -1.586  -0.371  0.00  0.00    +0.078 C 
ATOM     30  C   UNK A  0        8.492  -1.635   0.795  0.00  0.00    +0.059 C 
ATOM     31  C   UNK A  0        8.350  -2.434   2.069  0.00  0.00    +0.031 C 
ATOM     32  N   UNK A  0        9.541  -0.743   0.624  0.00  0.00    -0.290 NA
ATOM     33  H   UNK A  0       10.265  -0.561   1.304  0.00  0.00    +0.124 HD
ATOM     34  C   UNK A  0        9.446  -0.147  -0.609  0.00  0.00    +0.155 C 
ATOM     35  N   UNK A  0        8.331  -0.670  -1.216  0.00  0.00    -0.289 NA
ATOM     36  H   UNK A  0        7.999  -0.424  -2.139  0.00  0.00    +0.124 HD
ENDBRANCH  28  29
ENDBRANCH   8  28
TORSDOF 9
