REMARK  Name = DB18020
REMARK                            x       y       z     vdW  Elec       q    Type
REMARK                         _______ _______ _______ _____ _____    ______ ____
ROOT
ATOM      1  C   LIG    1        2.491  -0.888   0.848  0.00  0.00    +0.079 C 
ENDROOT
BRANCH   1   2
ATOM      2  N   LIG    1        2.608  -1.710  -0.357  0.00  0.00    -0.339 N 
ATOM      3  H   LIG    1        3.488  -1.627  -0.850  0.00  0.00    +0.146 HD
BRANCH   2   4
ATOM      4  C   LIG    1        1.872  -2.885  -0.601  0.00  0.00    +0.053 A 
ATOM      5  C   LIG    1        2.319  -3.799  -1.580  0.00  0.00    +0.120 A 
ATOM      6  C   LIG    1        1.577  -4.958  -1.836  0.00  0.00    +0.058 A 
ATOM      7  C   LIG    1        0.394  -5.223  -1.144  0.00  0.00    +0.111 A 
ATOM      8  C   LIG    1       -0.040  -4.324  -0.167  0.00  0.00    +0.031 A 
ATOM      9  C   LIG    1        0.686  -3.166   0.094  0.00  0.00    +0.027 A 
BRANCH   5  10
ATOM     10  S   LIG    1        3.831  -3.534  -2.543  0.00  0.00    +0.093 S 
ATOM     11  O   LIG    1        4.121  -4.776  -3.270  0.00  0.00    -0.161 OA
ATOM     12  O   LIG    1        4.846  -2.971  -1.644  0.00  0.00    -0.161 OA
BRANCH  10  13
ATOM     13  C   LIG    1        3.339  -2.215  -3.816  0.00  0.00    +0.526 C 
ATOM     14  F   LIG    1        2.272  -2.656  -4.483  0.00  0.00    -0.150 F 
ATOM     15  F   LIG    1        4.369  -2.039  -4.643  0.00  0.00    -0.150 F 
ATOM     16  F   LIG    1        3.058  -1.080  -3.177  0.00  0.00    -0.150 F 
ENDBRANCH  10  13
ENDBRANCH   5  10
BRANCH   7  17
ATOM     17  S   LIG    1       -0.537  -6.734  -1.484  0.00  0.00    +0.075 S 
ATOM     18  O   LIG    1       -0.272  -7.565  -0.305  0.00  0.00    -0.150 OA
ATOM     19  O   LIG    1       -0.033  -7.235  -2.771  0.00  0.00    -0.150 OA
BRANCH  17  20
ATOM     20  N   LIG    1       -2.022  -6.197  -1.523  0.00  0.00    -0.181 N 
ATOM     21  H   LIG    1       -2.622  -6.409  -0.771  0.00  0.00    +0.177 HD
ATOM     22  C   LIG    1       -2.489  -5.478  -2.523  0.00  0.00    +0.263 C 
ATOM     23  O   LIG    1       -1.848  -5.119  -3.517  0.00  0.00    -0.269 OA
BRANCH  22  24
ATOM     24  C   LIG    1       -3.949  -5.053  -2.405  0.00  0.00    +0.038 A 
ATOM     25  C   LIG    1       -4.535  -4.300  -3.432  0.00  0.00    +0.015 A 
ATOM     26  C   LIG    1       -5.862  -3.889  -3.355  0.00  0.00    +0.024 A 
ATOM     27  C   LIG    1       -6.667  -4.226  -2.256  0.00  0.00    +0.030 A 
ATOM     28  C   LIG    1       -6.074  -4.962  -1.220  0.00  0.00    +0.024 A 
ATOM     29  C   LIG    1       -4.747  -5.375  -1.293  0.00  0.00    +0.015 A 
BRANCH  27  30
ATOM     30  N   LIG    1       -7.994  -3.788  -2.153  0.00  0.00    -0.333 N 
ATOM     31  C   LIG    1       -9.032  -4.614  -1.501  0.00  0.00    +0.086 C 
ATOM     32  C   LIG    1       -9.706  -5.602  -2.482  0.00  0.00    -0.059 C 
ATOM     33  N   LIG    1      -10.386  -4.791  -3.605  0.00  0.00    +0.384 N 
ATOM     34  H   LIG    1      -11.070  -4.181  -3.182  0.00  0.00    -0.081 HD
ATOM     35  C   LIG    1       -9.322  -3.909  -4.290  0.00  0.00    -0.059 C 
ATOM     36  C   LIG    1       -8.672  -3.012  -3.212  0.00  0.00    +0.086 C 
BRANCH  33  37
ATOM     37  C   LIG    1      -11.106  -5.705  -4.625  0.00  0.00    -0.047 C 
BRANCH  37  38
ATOM     38  C   LIG    1      -12.308  -6.491  -4.082  0.00  0.00    -0.082 C 
ATOM     39  C   LIG    1      -12.256  -7.997  -4.396  0.00  0.00    +0.035 C 
ATOM     40  C   LIG    1      -13.630  -8.704  -4.231  0.00  0.00    -0.031 C 
ATOM     41  C   LIG    1      -14.598  -8.286  -5.367  0.00  0.00    +0.011 C 
ATOM     42  C   LIG    1      -13.393 -10.231  -4.215  0.00  0.00    +0.011 C 
ATOM     43  C   LIG    1      -14.169  -8.294  -2.836  0.00  0.00    +0.011 C 
ATOM     44  C   LIG    1      -14.457  -6.784  -2.758  0.00  0.00    +0.036 C 
ATOM     45  C   LIG    1      -13.253  -5.966  -3.242  0.00  0.00    -0.043 C 
BRANCH  45  46
ATOM     46  C   LIG    1      -13.349  -4.508  -3.000  0.00  0.00    -0.022 A 
ATOM     47  C   LIG    1      -13.270  -4.020  -1.692  0.00  0.00    +0.009 A 
ATOM     48  C   LIG    1      -13.339  -2.652  -1.448  0.00  0.00    +0.020 A 
ATOM     49  C   LIG    1      -13.500  -1.767  -2.512  0.00  0.00    +0.041 A 
ATOM     50 CL   LIG    1      -13.578  -0.070  -2.211  0.00  0.00    -0.084 Cl
ATOM     51  C   LIG    1      -13.598  -2.243  -3.818  0.00  0.00    +0.020 A 
ATOM     52  C   LIG    1      -13.527  -3.612  -4.061  0.00  0.00    +0.009 A 
ENDBRANCH  45  46
ENDBRANCH  37  38
ENDBRANCH  33  37
ENDBRANCH  27  30
ENDBRANCH  22  24
ENDBRANCH  17  20
ENDBRANCH   7  17
ENDBRANCH   2   4
ENDBRANCH   1   2
BRANCH   1  53
ATOM     53  C   LIG    1        1.807   0.467   0.551  0.00  0.00    +0.004 C 
BRANCH  53  54
ATOM     54  C   LIG    1        0.327   0.340   0.143  0.00  0.00    -0.077 C 
BRANCH  54  59
ATOM     55  C   LIG    1       -2.909   4.000  -2.367  0.00  0.00    +0.215 C 
ATOM     56  N   LIG    1       -2.008   3.637  -1.413  0.00  0.00    -0.305 N 
ATOM     57  C   LIG    1       -2.457   3.060  -0.128  0.00  0.00    +0.089 C 
ATOM     58  C   LIG    1       -1.843   1.651   0.022  0.00  0.00    -0.060 C 
ATOM     59  N   LIG    1       -0.304   1.739  -0.059  0.00  0.00    +0.382 N 
ATOM     60  H   LIG    1        0.014   2.350   0.680  0.00  0.00    -0.082 HD
ATOM     61  C   LIG    1        0.091   2.354  -1.422  0.00  0.00    -0.060 C 
ATOM     62  C   LIG    1       -0.543   3.756  -1.580  0.00  0.00    +0.089 C 
ATOM     63  O   LIG    1       -4.124   3.858  -2.206  0.00  0.00    -0.276 OA
BRANCH  55  64
ATOM     64  C   LIG    1       -2.403   4.615  -3.691  0.00  0.00    +0.096 C 
BRANCH  64  65
ATOM     65  C   LIG    1       -3.518   5.121  -4.638  0.00  0.00    +0.009 C 
BRANCH  65  66
ATOM     66  C   LIG    1       -2.988   5.805  -5.913  0.00  0.00    +0.001 C 
BRANCH  66  67
ATOM     67  C   LIG    1       -2.360   4.832  -6.935  0.00  0.00    +0.009 C 
BRANCH  67  68
ATOM     68  C   LIG    1       -1.832   5.512  -8.222  0.00  0.00    +0.096 C 
BRANCH  68  71
ATOM     69  N   LIG    1        0.340   6.079  -7.223  0.00  0.00    -0.304 N 
ATOM     70  H   LIG    1        0.296   5.154  -6.822  0.00  0.00    +0.149 HD
ATOM     71  C   LIG    1       -0.671   6.495  -8.007  0.00  0.00    +0.214 C 
ATOM     72  O   LIG    1       -0.695   7.601  -8.547  0.00  0.00    -0.276 OA
BRANCH  69  73
ATOM     73  C   LIG    1        1.550   6.847  -6.895  0.00  0.00    +0.164 C 
BRANCH  73  76
ATOM     74  C   LIG    1        3.715   8.416  -9.761  0.00  0.00    +0.164 C 
ATOM     75  N   LIG    1        2.899   8.211  -8.548  0.00  0.00    -0.286 N 
ATOM     76  C   LIG    1        2.449   6.985  -8.165  0.00  0.00    +0.237 C 
ATOM     77  O   LIG    1        2.747   5.953  -8.773  0.00  0.00    -0.274 OA
ATOM     78  C   LIG    1        2.493   9.479  -7.925  0.00  0.00    +0.140 C 
ATOM     79  C   LIG    1        3.200  10.565  -8.742  0.00  0.00    +0.134 C 
ATOM     80  C   LIG    1        3.532   9.907 -10.074  0.00  0.00    +0.065 C 
BRANCH  74  83
ATOM     81  N   LIG    1        5.731   7.190 -10.433  0.00  0.00    -0.307 N 
ATOM     82  H   LIG    1        5.116   6.770 -11.116  0.00  0.00    +0.149 HD
ATOM     83  C   LIG    1        5.194   8.031  -9.531  0.00  0.00    +0.234 C 
ATOM     84  O   LIG    1        5.837   8.538  -8.609  0.00  0.00    -0.274 OA
BRANCH  81  86
ATOM     85  C   LIG    1        7.288   5.609 -11.503  0.00  0.00    +0.033 C 
ATOM     86  C   LIG    1        7.123   6.725 -10.458  0.00  0.00    +0.100 C 
BRANCH  86  87
ATOM     87  C   LIG    1        8.172   7.826 -10.670  0.00  0.00    -0.027 A 
ATOM     88  C   LIG    1        9.409   7.725 -10.027  0.00  0.00    +0.006 A 
ATOM     89  C   LIG    1       10.368   8.720 -10.192  0.00  0.00    +0.009 A 
ATOM     90  C   LIG    1       10.103   9.831 -10.997  0.00  0.00    -0.010 A 
ATOM     91  C   LIG    1        8.862   9.936 -11.635  0.00  0.00    +0.009 A 
ATOM     92  C   LIG    1        7.903   8.940 -11.473  0.00  0.00    +0.006 A 
BRANCH  90  93
ATOM     93  C   LIG    1       11.146  10.889 -11.164  0.00  0.00    +0.042 A 
ATOM     94  C   LIG    1       12.541  10.803 -11.304  0.00  0.00    +0.053 A 
ATOM     95  C   LIG    1       13.416   9.567 -11.370  0.00  0.00    +0.067 C 
ATOM     96  N   LIG    1       13.182  11.954 -11.406  0.00  0.00    -0.252 NA
ATOM     97  C   LIG    1       12.369  12.976 -11.369  0.00  0.00    +0.156 A 
ATOM     98  S   LIG    1       10.698  12.580 -11.199  0.00  0.00    -0.075 S 
ENDBRANCH  90  93
ENDBRANCH  86  87
ENDBRANCH  81  86
ENDBRANCH  74  83
BRANCH  79  99
ATOM     99  O   LIG    1        2.501  11.787  -8.866  0.00  0.00    -0.390 OA
ATOM    100  H   LIG    1        1.788  11.668  -9.498  0.00  0.00    +0.210 HD
ENDBRANCH  79  99
ENDBRANCH  73  76
BRANCH  73 101
ATOM    101  C   LIG    1        2.291   6.260  -5.632  0.00  0.00    -0.011 C 
ATOM    102  C   LIG    1        2.817   4.817  -5.861  0.00  0.00    +0.013 C 
ATOM    103  C   LIG    1        3.487   7.159  -5.222  0.00  0.00    +0.013 C 
ATOM    104  C   LIG    1        1.318   6.210  -4.423  0.00  0.00    +0.013 C 
ENDBRANCH  73 101
ENDBRANCH  69  73
ENDBRANCH  68  71
ENDBRANCH  67  68
ENDBRANCH  66  67
ENDBRANCH  65  66
ENDBRANCH  64  65
ENDBRANCH  55  64
ENDBRANCH  54  59
ENDBRANCH  53  54
ENDBRANCH   1  53
BRANCH   1 105
ATOM    105  C   LIG    1        3.880  -0.689   1.494  0.00  0.00    +0.096 C 
BRANCH 105 106
ATOM    106  S   LIG    1        5.143   0.143   0.481  0.00  0.00    -0.123 S 
BRANCH 106 107
ATOM    107  C   LIG    1        6.684  -0.350   1.182  0.00  0.00    +0.008 A 
ATOM    108  C   LIG    1        7.420   0.563   1.938  0.00  0.00    +0.015 A 
ATOM    109  C   LIG    1        8.635   0.171   2.495  0.00  0.00    +0.001 A 
ATOM    110  C   LIG    1        9.103  -1.126   2.291  0.00  0.00    +0.000 A 
ATOM    111  C   LIG    1        8.367  -2.038   1.535  0.00  0.00    +0.001 A 
ATOM    112  C   LIG    1        7.152  -1.649   0.978  0.00  0.00    +0.015 A 
ENDBRANCH 106 107
ENDBRANCH 105 106
ENDBRANCH   1 105
TORSDOF 31
