REMARK  Name = DB18407
REMARK                            x       y       z     vdW  Elec       q    Type
REMARK                         _______ _______ _______ _____ _____    ______ ____
ROOT
ATOM      1  C   LIG    1        1.208  -0.260   0.437  0.00  0.00    +0.146 C 
ATOM      2  C   LIG    1        1.816  -1.667   0.143  0.00  0.00    +0.061 C 
ATOM      3  C   LIG    1        3.361  -1.465   0.046  0.00  0.00    +0.030 C 
ATOM      4  C   LIG    1        3.951  -0.837   1.340  0.00  0.00    +0.028 C 
ATOM      5  C   LIG    1        2.852  -0.566   2.416  0.00  0.00    +0.037 C 
ATOM      6  C   LIG    1        2.123  -1.918   2.697  0.00  0.00    +0.028 C 
ATOM      7  C   LIG    1        1.541  -2.549   1.403  0.00  0.00    +0.030 C 
ATOM      8  C   LIG    1        1.805   0.363   1.738  0.00  0.00    +0.059 C 
ENDROOT
BRANCH   2   9
ATOM      9  N   LIG    1        1.227  -2.220  -1.088  0.00  0.00    -0.304 N 
ATOM     10  H   LIG    1        0.543  -1.621  -1.529  0.00  0.00    +0.149 HD
ATOM     11  C   LIG    1        1.480  -3.406  -1.673  0.00  0.00    +0.251 C 
ATOM     12  O   LIG    1        2.286  -4.227  -1.232  0.00  0.00    -0.272 OA
BRANCH  11  13
ATOM     13  C   LIG    1        0.682  -3.691  -2.952  0.00  0.00    +0.324 C 
BRANCH  13  14
ATOM     14  O   LIG    1        0.935  -5.030  -3.379  0.00  0.00    -0.483 OA
BRANCH  14  15
ATOM     15  C   LIG    1        0.294  -5.513  -4.503  0.00  0.00    +0.124 A 
ATOM     16  C   LIG    1       -0.583  -4.762  -5.305  0.00  0.00    +0.085 A 
ATOM     17  C   LIG    1       -1.187  -5.336  -6.426  0.00  0.00    +0.145 A 
ATOM     18  F   LIG    1       -2.027  -4.594  -7.184  0.00  0.00    -0.204 F 
ATOM     19  C   LIG    1       -0.922  -6.667  -6.758  0.00  0.00    +0.076 A 
ATOM     20 CL   LIG    1       -1.663  -7.392  -8.140  0.00  0.00    -0.081 Cl
ATOM     21  C   LIG    1       -0.053  -7.418  -5.967  0.00  0.00    +0.026 A 
ATOM     22  C   LIG    1        0.550  -6.843  -4.849  0.00  0.00    +0.047 A 
ENDBRANCH  14  15
ENDBRANCH  13  14
ENDBRANCH  11  13
ENDBRANCH   2   9
BRANCH   5  23
ATOM     23  N   LIG    1        3.376   0.072   3.634  0.00  0.00    -0.307 N 
ATOM     24  H   LIG    1        2.985   0.979   3.842  0.00  0.00    +0.149 HD
ATOM     25  C   LIG    1        4.301  -0.411   4.490  0.00  0.00    +0.251 C 
ATOM     26  O   LIG    1        4.853  -1.501   4.344  0.00  0.00    -0.272 OA
BRANCH  25  27
ATOM     27  C   LIG    1        4.683   0.444   5.708  0.00  0.00    +0.324 C 
BRANCH  27  28
ATOM     28  O   LIG    1        3.937   1.664   5.726  0.00  0.00    -0.483 OA
BRANCH  28  29
ATOM     29  C   LIG    1        4.110   2.544   6.776  0.00  0.00    +0.124 A 
ATOM     30  C   LIG    1        4.995   2.338   7.849  0.00  0.00    +0.085 A 
ATOM     31  C   LIG    1        5.103   3.283   8.871  0.00  0.00    +0.145 A 
ATOM     32  F   LIG    1        5.960   3.062   9.895  0.00  0.00    -0.204 F 
ATOM     33  C   LIG    1        4.330   4.446   8.833  0.00  0.00    +0.076 A 
ATOM     34 CL   LIG    1        4.452   5.624  10.090  0.00  0.00    -0.081 Cl
ATOM     35  C   LIG    1        3.451   4.658   7.772  0.00  0.00    +0.026 A 
ATOM     36  C   LIG    1        3.344   3.712   6.752  0.00  0.00    +0.047 A 
ENDBRANCH  28  29
ENDBRANCH  27  28
ENDBRANCH  25  27
ENDBRANCH   5  23
BRANCH   1  37
ATOM     37  O   LIG    1       -0.220  -0.335   0.494  0.00  0.00    -0.348 OA
BRANCH  37  38
ATOM     38  C   LIG    1       -0.909   0.887   0.259  0.00  0.00    +0.335 C 
BRANCH  38  39
ATOM     39  O   LIG    1       -0.813   1.267  -1.099  0.00  0.00    -0.260 OA
BRANCH  39  40
ATOM     40  P   LIG    1       -1.471   2.798  -1.652  0.00  0.00    +0.474 P 
ATOM     41  O   LIG    1       -2.975   2.752  -1.325  0.00  0.00    -0.227 OA
BRANCH  40  42
ATOM     42  O   LIG    1       -1.186   2.847  -3.164  0.00  0.00    -0.303 OA
ATOM     43  H   LIG    1       -1.529   3.677  -3.531  0.00  0.00    +0.222 HD
ENDBRANCH  40  42
BRANCH  40  44
ATOM     44  O   LIG    1       -0.718   3.886  -0.864  0.00  0.00    -0.303 OA
ATOM     45  H   LIG    1       -1.042   4.760  -1.129  0.00  0.00    +0.222 HD
ENDBRANCH  40  44
ENDBRANCH  39  40
ENDBRANCH  38  39
ENDBRANCH  37  38
ENDBRANCH   1  37
TORSDOF 14
