REMARK  Name = DB18106
REMARK                            x       y       z     vdW  Elec       q    Type
REMARK                         _______ _______ _______ _____ _____    ______ ____
ROOT
ATOM      1  N   LIG    1        2.550   1.024  -0.835  0.00  0.00    -0.305 N 
ATOM      2  C   LIG    1        2.671   2.375  -1.009  0.00  0.00    +0.166 A 
ATOM      3  N   LIG    1        2.358   3.381  -0.154  0.00  0.00    -0.216 NA
ATOM      4  C   LIG    1        2.613   4.582  -0.697  0.00  0.00    +0.225 A 
ATOM      5  N   LIG    1        3.105   4.877  -1.909  0.00  0.00    -0.219 NA
ATOM      6  C   LIG    1        3.408   3.844  -2.744  0.00  0.00    +0.147 A 
ATOM      7  C   LIG    1        3.184   2.526  -2.285  0.00  0.00    +0.148 A 
ATOM      8  N   LIG    1        3.369   1.335  -2.873  0.00  0.00    -0.216 NA
ATOM      9  C   LIG    1        2.957   0.451  -1.993  0.00  0.00    +0.176 A 
ENDROOT
BRANCH   6  10
ATOM     10  N   LIG    1        3.914   4.133  -4.010  0.00  0.00    -0.341 N 
ATOM     11  H   LIG    1        4.049   5.096  -4.280  0.00  0.00    +0.144 HD
ATOM     12  H   LIG    1        4.144   3.376  -4.637  0.00  0.00    +0.144 HD
ENDBRANCH   6  10
BRANCH   1  13
ATOM     13  C   LIG    1        2.026   0.347   0.372  0.00  0.00    +0.107 C 
BRANCH  13  14
ATOM     14  C   LIG    1        0.532  -0.012   0.241  0.00  0.00    -0.061 C 
BRANCH  14  15
ATOM     15  N   LIG    1       -0.310   1.270   0.121  0.00  0.00    +0.381 N 
ATOM     16  H   LIG    1       -0.218   1.808   0.971  0.00  0.00    -0.086 HD
ATOM     17  H   LIG    1        0.071   1.822  -0.634  0.00  0.00    -0.086 HD
BRANCH  15  18
ATOM     18  C   LIG    1       -1.804   1.035  -0.167  0.00  0.00    -0.076 C 
BRANCH  18  20
ATOM     19  C   LIG    1       -2.503   3.319   0.756  0.00  0.00    +0.009 C 
ATOM     20  C   LIG    1       -2.554   2.366  -0.463  0.00  0.00    -0.053 C 
ATOM     21  C   LIG    1       -1.952   3.082  -1.699  0.00  0.00    +0.009 C 
ATOM     22  C   LIG    1       -4.031   2.027  -0.764  0.00  0.00    +0.009 C 
ENDBRANCH  18  20
ENDBRANCH  15  18
ENDBRANCH  14  15
ENDBRANCH  13  14
ENDBRANCH   1  13
BRANCH   9  23
ATOM     23  S   LIG    1        2.912  -1.299  -2.268  0.00  0.00    -0.050 S 
BRANCH  23  24
ATOM     24  C   LIG    1        2.773  -1.334  -4.037  0.00  0.00    +0.032 A 
ATOM     25  C   LIG    1        1.595  -0.919  -4.706  0.00  0.00    +0.031 A 
ATOM     26  I   LIG    1       -0.102  -0.211  -3.694  0.00  0.00    -0.043 I 
ATOM     27  C   LIG    1        1.525  -0.974  -6.106  0.00  0.00    +0.065 A 
ATOM     28  C   LIG    1        2.636  -1.439  -6.799  0.00  0.00    +0.167 A 
ATOM     29  O   LIG    1        2.796  -1.605  -8.138  0.00  0.00    -0.453 OA
ATOM     30  C   LIG    1        4.147  -1.935  -8.319  0.00  0.00    +0.466 C 
ATOM     31  O   LIG    1        4.674  -2.283  -7.066  0.00  0.00    -0.453 OA
ATOM     32  C   LIG    1        3.767  -1.846  -6.154  0.00  0.00    +0.167 A 
ATOM     33  C   LIG    1        3.870  -1.817  -4.768  0.00  0.00    +0.065 A 
ENDBRANCH  23  24
ENDBRANCH   9  23
TORSDOF 8
