REMARK  Name = DB18398
REMARK                            x       y       z     vdW  Elec       q    Type
REMARK                         _______ _______ _______ _____ _____    ______ ____
ROOT
ATOM      1  C   LIG    1        1.380   0.887  -0.028  0.00  0.00    -0.062 C 
ENDROOT
BRANCH   1   2
ATOM      2  N   LIG    1        0.268  -0.144   0.281  0.00  0.00    +0.390 N 
ATOM      3  H   LIG    1        0.734  -0.946   0.685  0.00  0.00    -0.081 HD
BRANCH   2   4
ATOM      4  C   LIG    1       -0.421  -0.622  -1.024  0.00  0.00    -0.038 C 
BRANCH   4   8
ATOM      5  C   LIG    1       -5.199  -2.406  -0.701  0.00  0.00    +0.069 C 
ATOM      6  C   LIG    1       -3.690  -2.602  -0.730  0.00  0.00    +0.080 A 
ATOM      7  C   LIG    1       -2.806  -1.521  -0.857  0.00  0.00    +0.139 A 
ATOM      8  C   LIG    1       -1.420  -1.775  -0.864  0.00  0.00    -0.014 A 
ATOM      9  C   LIG    1       -0.972  -3.109  -0.759  0.00  0.00    +0.002 A 
ATOM     10  C   LIG    1       -1.935  -4.119  -0.644  0.00  0.00    +0.117 A 
ATOM     11  N   LIG    1       -3.268  -3.885  -0.624  0.00  0.00    -0.256 NA
BRANCH   7  12
ATOM     12  O   LIG    1       -3.301  -0.244  -0.971  0.00  0.00    -0.505 OA
ATOM     13  H   LIG    1       -2.615   0.428  -0.950  0.00  0.00    +0.292 HD
ENDBRANCH   7  12
BRANCH   9  14
ATOM     14  C   LIG    1        0.520  -3.459  -0.785  0.00  0.00    +0.209 C 
BRANCH  14  15
ATOM     15  O   LIG    1        0.768  -4.822  -0.465  0.00  0.00    -0.282 OA
BRANCH  15  16
ATOM     16  P   LIG    1        1.136  -5.228   1.179  0.00  0.00    +0.473 P 
ATOM     17  O   LIG    1        1.293  -6.731   1.255  0.00  0.00    -0.228 OA
BRANCH  16  18
ATOM     18  O   LIG    1       -0.367  -4.815   1.888  0.00  0.00    -0.303 OA
ATOM     19  H   LIG    1       -0.539  -3.952   2.313  0.00  0.00    +0.222 HD
ENDBRANCH  16  18
BRANCH  16  20
ATOM     20  O   LIG    1        2.180  -4.263   1.696  0.00  0.00    -0.303 OA
ATOM     21  H   LIG    1        1.879  -3.352   1.548  0.00  0.00    +0.222 HD
ENDBRANCH  16  20
ENDBRANCH  15  16
ENDBRANCH  14  15
ENDBRANCH   9  14
ENDBRANCH   4   8
ENDBRANCH   2   4
BRANCH   2  22
ATOM     22  C   LIG    1       -0.742   0.372   1.351  0.00  0.00    +0.044 C 
BRANCH  22  23
ATOM     23  C   LIG    1       -1.076  -0.728   2.390  0.00  0.00    +0.288 C 
ATOM     24  O   LIG    1       -1.953  -0.421   3.227  0.00  0.00    -0.253 OA
BRANCH  23  25
ATOM     25  O   LIG    1       -0.478  -1.829   2.379  0.00  0.00    -0.482 OA
ATOM     26  H   LIG    1       -0.690  -2.485   3.014  0.00  0.00    +0.295 HD
ENDBRANCH  23  25
ENDBRANCH  22  23
ENDBRANCH   2  22
ENDBRANCH   1   2
BRANCH   1  27
ATOM     27  C   LIG    1        2.384   0.983   1.144  0.00  0.00    +0.067 C 
BRANCH  27  28
ATOM     28  N   LIG    1        3.336   2.082   0.921  0.00  0.00    -0.290 NA
BRANCH  28  29
ATOM     29  C   LIG    1        2.713   3.373   1.256  0.00  0.00    +0.124 C 
BRANCH  29  30
ATOM     30  C   LIG    1        3.489   4.580   0.708  0.00  0.00    +0.017 A 
ATOM     31  C   LIG    1        3.641   4.748  -0.682  0.00  0.00    +0.142 A 
ATOM     32  C   LIG    1        4.332   5.872  -1.157  0.00  0.00    +0.080 A 
ATOM     33  C   LIG    1        4.533   6.123  -2.644  0.00  0.00    +0.069 C 
ATOM     34  N   LIG    1        4.860   6.811  -0.332  0.00  0.00    -0.256 NA
ATOM     35  C   LIG    1        4.703   6.642   1.002  0.00  0.00    +0.117 A 
ATOM     36  C   LIG    1        4.031   5.556   1.570  0.00  0.00    +0.005 A 
BRANCH  31  37
ATOM     37  O   LIG    1        3.124   3.829  -1.563  0.00  0.00    -0.505 OA
ATOM     38  H   LIG    1        2.841   3.029  -1.114  0.00  0.00    +0.292 HD
ENDBRANCH  31  37
BRANCH  36  39
ATOM     39  C   LIG    1        3.911   5.477   3.090  0.00  0.00    +0.209 C 
BRANCH  39  40
ATOM     40  O   LIG    1        2.555   5.509   3.499  0.00  0.00    -0.282 OA
BRANCH  40  41
ATOM     41  P   LIG    1        1.582   6.973   3.405  0.00  0.00    +0.473 P 
ATOM     42  O   LIG    1        0.259   6.626   4.111  0.00  0.00    -0.228 OA
BRANCH  41  43
ATOM     43  O   LIG    1        1.396   7.268   1.905  0.00  0.00    -0.303 OA
ATOM     44  H   LIG    1        2.256   7.480   1.509  0.00  0.00    +0.222 HD
ENDBRANCH  41  43
BRANCH  41  45
ATOM     45  O   LIG    1        2.386   8.063   4.139  0.00  0.00    -0.303 OA
ATOM     46  H   LIG    1        3.206   8.242   3.653  0.00  0.00    +0.222 HD
ENDBRANCH  41  45
ENDBRANCH  40  41
ENDBRANCH  39  40
ENDBRANCH  36  39
ENDBRANCH  29  30
ENDBRANCH  28  29
BRANCH  28  47
ATOM     47  C   LIG    1        4.568   1.891   1.717  0.00  0.00    +0.205 C 
BRANCH  47  48
ATOM     48  C   LIG    1        5.548   0.813   1.178  0.00  0.00    +0.319 C 
ATOM     49  O   LIG    1        5.425   0.364   0.013  0.00  0.00    -0.250 OA
BRANCH  48  50
ATOM     50  O   LIG    1        6.462   0.471   1.962  0.00  0.00    -0.480 OA
ATOM     51  H   LIG    1        7.088  -0.175   1.699  0.00  0.00    +0.295 HD
ENDBRANCH  48  50
ENDBRANCH  47  48
ENDBRANCH  28  47
ENDBRANCH  27  28
ENDBRANCH   1  27
TORSDOF 25
