REMARK  Name = DB18029
REMARK                            x       y       z     vdW  Elec       q    Type
REMARK                         _______ _______ _______ _____ _____    ______ ____
ROOT
ATOM      1  C   LIG    1       -1.847   1.739  -0.040  0.00  0.00    -0.002 C 
ATOM      2  C   LIG    1       -2.479   3.175  -0.006  0.00  0.00    -0.022 C 
ATOM      3  C   LIG    1       -1.598   4.166   0.820  0.00  0.00    +0.012 C 
ATOM      4  C   LIG    1       -2.846   3.760  -1.400  0.00  0.00    +0.008 C 
ATOM      5  C   LIG    1       -3.712   5.035  -1.275  0.00  0.00    +0.005 C 
ATOM      6  C   LIG    1       -4.987   4.813  -0.423  0.00  0.00    +0.031 C 
ATOM      7  C   LIG    1       -4.656   4.135   0.919  0.00  0.00    -0.066 C 
ATOM      8  C   LIG    1       -5.026   4.579   2.142  0.00  0.00    -0.000 C 
ATOM      9  C   LIG    1       -3.829   2.858   0.693  0.00  0.00    +0.021 C 
ATOM     10  C   LIG    1       -3.460   1.937   1.857  0.00  0.00    +0.009 C 
ATOM     11  C   LIG    1       -2.321   1.080   1.290  0.00  0.00    +0.005 C 
ENDROOT
BRANCH   8  12
ATOM     12  C   LIG    1       -5.798   5.782   2.431  0.00  0.00    +0.004 C 
ATOM     13  C   LIG    1       -6.212   6.192   3.655  0.00  0.00    -0.042 C 
ATOM     14  C   LIG    1       -5.985   5.456   4.900  0.00  0.00    -0.051 C 
ATOM     15  C   LIG    1       -6.348   4.168   5.054  0.00  0.00    +0.012 C 
ATOM     16  C   LIG    1       -5.333   6.244   6.030  0.00  0.00    +0.037 C 
ATOM     17  C   LIG    1       -6.093   7.573   6.243  0.00  0.00    +0.036 C 
ATOM     18  C   LIG    1       -6.297   8.361   4.926  0.00  0.00    +0.119 C 
ATOM     19  C   LIG    1       -6.971   7.507   3.824  0.00  0.00    +0.066 C 
BRANCH  18  20
ATOM     20  O   LIG    1       -7.029   9.547   5.159  0.00  0.00    -0.391 OA
ATOM     21  H   LIG    1       -7.902   9.309   5.479  0.00  0.00    +0.210 HD
ENDBRANCH  18  20
ENDBRANCH   8  12
BRANCH   1  22
ATOM     22  C   LIG    1       -0.302   1.601  -0.281  0.00  0.00    -0.010 C 
ATOM     23  C   LIG    1        0.178   2.304  -1.571  0.00  0.00    +0.008 C 
BRANCH  22  24
ATOM     24  C   LIG    1        0.148   0.110  -0.283  0.00  0.00    +0.006 C 
BRANCH  24  25
ATOM     25  C   LIG    1        1.669  -0.113  -0.091  0.00  0.00    +0.034 C 
BRANCH  25  26
ATOM     26  C   LIG    1        2.099  -1.605  -0.030  0.00  0.00    +0.146 C 
BRANCH  26  27
ATOM     27  C   LIG    1        3.643  -1.858   0.064  0.00  0.00    +0.086 C 
ATOM     28  C   LIG    1        4.400  -1.295  -1.161  0.00  0.00    +0.043 C 
ATOM     29  C   LIG    1        3.982  -3.358   0.237  0.00  0.00    +0.043 C 
BRANCH  27  30
ATOM     30  O   LIG    1        4.165  -1.189   1.201  0.00  0.00    -0.387 OA
ATOM     31  H   LIG    1        5.107  -1.364   1.250  0.00  0.00    +0.210 HD
ENDBRANCH  27  30
ENDBRANCH  26  27
BRANCH  26  32
ATOM     32  O   LIG    1        1.425  -2.229   1.053  0.00  0.00    -0.389 OA
ATOM     33  H   LIG    1        1.746  -1.840   1.870  0.00  0.00    +0.210 HD
ENDBRANCH  26  32
ENDBRANCH  25  26
ENDBRANCH  24  25
ENDBRANCH  22  24
ENDBRANCH   1  22
TORSDOF 9
