REMARK  Name = DB18089
REMARK                            x       y       z     vdW  Elec       q    Type
REMARK                         _______ _______ _______ _____ _____    ______ ____
ROOT
ATOM      1  C   LIG    1        1.596  -4.459  -2.589  0.00  0.00    +0.039 C 
ENDROOT
BRANCH   1   2
ATOM      2  C   LIG    1        2.039  -3.660  -1.349  0.00  0.00    +0.005 C 
BRANCH   2   3
ATOM      3  C   LIG    1        1.572  -2.195  -1.394  0.00  0.00    +0.000 C 
BRANCH   3   4
ATOM      4  C   LIG    1        1.971  -1.403  -0.134  0.00  0.00    +0.000 C 
BRANCH   4   5
ATOM      5  C   LIG    1        1.561   0.084  -0.154  0.00  0.00    +0.000 C 
BRANCH   5   6
ATOM      6  C   LIG    1        0.035   0.318  -0.171  0.00  0.00    +0.000 C 
BRANCH   6   7
ATOM      7  C   LIG    1       -0.387   1.798  -0.074  0.00  0.00    +0.000 C 
BRANCH   7   8
ATOM      8  C   LIG    1       -0.066   2.453   1.282  0.00  0.00    +0.000 C 
BRANCH   8   9
ATOM      9  C   LIG    1       -0.678   3.858   1.439  0.00  0.00    +0.005 C 
BRANCH   9  10
ATOM     10  C   LIG    1       -0.312   4.580   2.754  0.00  0.00    +0.039 C 
BRANCH  10  16
ATOM     11  C   LIG    1       -2.121   1.930   7.700  0.00  0.00    +0.048 C 
ATOM     12  C   LIG    1       -1.583   2.553   6.407  0.00  0.00    +0.003 C 
ATOM     13  C   LIG    1       -2.540   3.502   5.776  0.00  0.00    +0.183 C 
ATOM     14  O   LIG    1       -3.670   3.763   6.190  0.00  0.00    -0.288 OA
ATOM     15  C   LIG    1       -2.008   4.113   4.558  0.00  0.00    +0.058 C 
ATOM     16  C   LIG    1       -0.783   3.876   4.033  0.00  0.00    +0.003 C 
ATOM     17  C   LIG    1        0.201   2.970   4.681  0.00  0.00    +0.185 C 
ATOM     18  O   LIG    1        1.339   2.781   4.242  0.00  0.00    -0.287 OA
ATOM     19  C   LIG    1       -0.329   2.318   5.913  0.00  0.00    +0.003 C 
ATOM     20  C   LIG    1        0.647   1.306   6.525  0.00  0.00    +0.048 C 
ENDBRANCH  10  16
ENDBRANCH   9  10
ENDBRANCH   8   9
ENDBRANCH   7   8
ENDBRANCH   6   7
ENDBRANCH   5   6
ENDBRANCH   4   5
ENDBRANCH   3   4
ENDBRANCH   2   3
ENDBRANCH   1   2
BRANCH   1  21
ATOM     21  P   LIG    1        2.218  -6.201  -2.565  0.00  0.00    -0.043 P 
BRANCH  21  22
ATOM     22  C   LIG    1        4.039  -6.239  -2.585  0.00  0.00    -0.019 A 
ATOM     23  C   LIG    1        4.754  -5.183  -3.157  0.00  0.00    +0.009 A 
ATOM     24  C   LIG    1        6.146  -5.221  -3.180  0.00  0.00    +0.001 A 
ATOM     25  C   LIG    1        6.816  -6.316  -2.639  0.00  0.00    +0.000 A 
ATOM     26  C   LIG    1        6.108  -7.376  -2.077  0.00  0.00    +0.001 A 
ATOM     27  C   LIG    1        4.716  -7.339  -2.052  0.00  0.00    +0.009 A 
ENDBRANCH  21  22
BRANCH  21  28
ATOM     28  C   LIG    1        1.642  -7.101  -4.038  0.00  0.00    -0.019 A 
ATOM     29  C   LIG    1        0.836  -6.471  -4.990  0.00  0.00    +0.009 A 
ATOM     30  C   LIG    1        0.402  -7.179  -6.107  0.00  0.00    +0.001 A 
ATOM     31  C   LIG    1        0.774  -8.512  -6.268  0.00  0.00    +0.000 A 
ATOM     32  C   LIG    1        1.578  -9.144  -5.322  0.00  0.00    +0.001 A 
ATOM     33  C   LIG    1        2.014  -8.438  -4.204  0.00  0.00    +0.009 A 
ENDBRANCH  21  28
BRANCH  21  34
ATOM     34  C   LIG    1        1.581  -7.021  -1.068  0.00  0.00    -0.019 A 
ATOM     35  C   LIG    1        2.246  -6.855   0.150  0.00  0.00    +0.009 A 
ATOM     36  C   LIG    1        1.754  -7.472   1.297  0.00  0.00    +0.001 A 
ATOM     37  C   LIG    1        0.600  -8.249   1.222  0.00  0.00    +0.000 A 
ATOM     38  C   LIG    1       -0.070  -8.411   0.012  0.00  0.00    +0.001 A 
ATOM     39  C   LIG    1        0.419  -7.793  -1.136  0.00  0.00    +0.009 A 
ENDBRANCH  21  34
ENDBRANCH   1  21
TORSDOF 14
