REMARK  Name = DB18109
REMARK                            x       y       z     vdW  Elec       q    Type
REMARK                         _______ _______ _______ _____ _____    ______ ____
ROOT
ATOM      1  C   LIG    1        6.205   2.721   0.398  0.00  0.00    +0.140 A 
ATOM      2  N   LIG    1        5.513   3.880   0.224  0.00  0.00    -0.150 NA
ATOM      3  N   LIG    1        6.248   4.964  -0.077  0.00  0.00    -0.211 N 
ATOM      4  C   LIG    1        5.806   6.251  -0.320  0.00  0.00    +0.093 A 
ATOM      5  C   LIG    1        6.987   6.966  -0.553  0.00  0.00    +0.141 A 
ATOM      6  N   LIG    1        8.087   6.250  -0.484  0.00  0.00    -0.234 NA
ATOM      7  C   LIG    1        7.648   5.003  -0.190  0.00  0.00    +0.155 A 
ATOM      8  C   LIG    1        8.340   3.797   0.013  0.00  0.00    +0.051 A 
ATOM      9  C   LIG    1        7.598   2.651   0.306  0.00  0.00    +0.049 A 
ENDROOT
BRANCH   4  10
ATOM     10  C   LIG    1        4.380   6.720  -0.333  0.00  0.00    +0.002 A 
ATOM     11  C   LIG    1        3.306   5.869  -0.635  0.00  0.00    +0.022 A 
ATOM     12  C   LIG    1        1.986   6.334  -0.632  0.00  0.00    +0.055 A 
ATOM     13  C   LIG    1        1.741   7.680  -0.335  0.00  0.00    +0.012 A 
ATOM     14  C   LIG    1        2.799   8.541  -0.050  0.00  0.00    +0.001 A 
ATOM     15  C   LIG    1        4.109   8.064  -0.052  0.00  0.00    +0.010 A 
BRANCH  12  16
ATOM     16  C   LIG    1        0.842   5.373  -0.952  0.00  0.00    +0.417 C 
ATOM     17  F   LIG    1       -0.287   6.019  -1.253  0.00  0.00    -0.166 F 
ATOM     18  F   LIG    1        0.612   4.601   0.111  0.00  0.00    -0.166 F 
ATOM     19  F   LIG    1        1.158   4.591  -1.986  0.00  0.00    -0.166 F 
ENDBRANCH  12  16
ENDBRANCH   4  10
BRANCH   1  20
ATOM     20  N   LIG    1        5.503   1.537   0.684  0.00  0.00    -0.325 N 
ATOM     21  H   LIG    1        5.999   0.668   0.546  0.00  0.00    +0.148 HD
BRANCH  20  25
ATOM     22  C   LIG    1        1.514  -0.030  -0.003  0.00  0.00    +0.020 C 
ATOM     23  C   LIG    1        2.026   0.151   1.458  0.00  0.00    +0.008 C 
ATOM     24  C   LIG    1        3.560   0.302   1.531  0.00  0.00    +0.022 C 
ATOM     25  C   LIG    1        4.039   1.481   0.661  0.00  0.00    +0.072 C 
ATOM     26  C   LIG    1        3.549   1.332  -0.798  0.00  0.00    +0.022 C 
ATOM     27  C   LIG    1        2.017   1.176  -0.850  0.00  0.00    +0.008 C 
BRANCH  22  29
ATOM     28  C   LIG    1       -0.498  -1.492   0.730  0.00  0.00    +0.041 C 
ATOM     29  C   LIG    1       -0.033  -0.278  -0.108  0.00  0.00    +0.063 C 
ATOM     30  C   LIG    1       -0.500  -0.476  -1.570  0.00  0.00    +0.041 C 
BRANCH  29  31
ATOM     31  O   LIG    1       -0.731   0.851   0.389  0.00  0.00    -0.389 OA
ATOM     32  H   LIG    1       -0.467   0.995   1.301  0.00  0.00    +0.210 HD
ENDBRANCH  29  31
ENDBRANCH  22  29
ENDBRANCH  20  25
ENDBRANCH   1  20
TORSDOF 6
