REMARK  Name = DB18306
REMARK                            x       y       z     vdW  Elec       q    Type
REMARK                         _______ _______ _______ _____ _____    ______ ____
ROOT
ATOM      1  C   LIG    1        3.527   0.913   0.626  0.00  0.00    +0.037 A 
ATOM      2  C   LIG    1        4.491  -0.109   0.625  0.00  0.00    +0.065 A 
ATOM      3  C   LIG    1        5.851   0.205   0.631  0.00  0.00    +0.167 A 
ATOM      4  F   LIG    1        6.767  -0.791   0.627  0.00  0.00    -0.202 F 
ATOM      5  C   LIG    1        6.266   1.540   0.636  0.00  0.00    +0.164 A 
ATOM      6  C   LIG    1        5.307   2.559   0.626  0.00  0.00    +0.051 A 
ATOM      7  C   LIG    1        3.947   2.246   0.616  0.00  0.00    +0.027 A 
ENDROOT
BRANCH   1   9
ATOM      8  C   LIG    1        1.453  -0.401   1.013  0.00  0.00    +0.254 C 
ATOM      9  N   LIG    1        2.140   0.685   0.586  0.00  0.00    -0.281 N 
ATOM     10  H   LIG    1        1.591   1.464   0.256  0.00  0.00    +0.155 HD
ATOM     11  O   LIG    1        1.970  -1.380   1.555  0.00  0.00    -0.270 OA
BRANCH   8  16
ATOM     12  C   LIG    1       -2.719  -0.159   0.341  0.00  0.00    +0.203 A 
ATOM     13  N   LIG    1       -2.047  -1.306  -0.078  0.00  0.00    -0.247 N 
ATOM     14  C   LIG    1       -0.680  -1.462   0.085  0.00  0.00    +0.271 A 
ATOM     15  O   LIG    1       -0.077  -2.466  -0.315  0.00  0.00    -0.266 OA
ATOM     16  C   LIG    1        0.021  -0.343   0.756  0.00  0.00    +0.102 A 
ATOM     17  C   LIG    1       -0.666   0.764   1.154  0.00  0.00    +0.023 A 
ATOM     18  C   LIG    1       -2.093   0.878   0.943  0.00  0.00    +0.067 A 
BRANCH  13  19
ATOM     19  C   LIG    1       -2.771  -2.345  -0.708  0.00  0.00    +0.053 A 
ATOM     20  C   LIG    1       -3.241  -3.422   0.051  0.00  0.00    +0.029 A 
ATOM     21  C   LIG    1       -3.966  -4.437  -0.569  0.00  0.00    +0.040 A 
ATOM     22  C   LIG    1       -4.219  -4.369  -1.938  0.00  0.00    +0.124 A 
ATOM     23  F   LIG    1       -4.923  -5.355  -2.538  0.00  0.00    -0.205 F 
ATOM     24  C   LIG    1       -3.754  -3.294  -2.695  0.00  0.00    +0.040 A 
ATOM     25  C   LIG    1       -3.029  -2.277  -2.081  0.00  0.00    +0.029 A 
ENDBRANCH  13  19
BRANCH  12  26
ATOM     26  O   LIG    1       -4.061  -0.230   0.067  0.00  0.00    -0.474 OA
BRANCH  26  28
ATOM     27  C   LIG    1       -6.353   0.285   0.426  0.00  0.00    +0.051 C 
ATOM     28  C   LIG    1       -4.932   0.863   0.371  0.00  0.00    +0.169 C 
ATOM     29  C   LIG    1       -4.807   1.974  -0.689  0.00  0.00    +0.051 C 
ENDBRANCH  26  28
ENDBRANCH  12  26
ENDBRANCH   8  16
ENDBRANCH   1   9
BRANCH   5  30
ATOM     30  O   LIG    1        7.612   1.828   0.624  0.00  0.00    -0.453 OA
BRANCH  30  31
ATOM     31  C   LIG    1        8.151   2.654   1.589  0.00  0.00    +0.137 A 
ATOM     32  C   LIG    1        9.038   3.676   1.207  0.00  0.00    +0.029 A 
ATOM     33  C   LIG    1        9.646   4.502   2.163  0.00  0.00    +0.040 A 
ATOM     34  C   LIG    1        9.341   4.268   3.507  0.00  0.00    +0.069 A 
ATOM     35  N   LIG    1        9.756   4.874   4.681  0.00  0.00    -0.267 N 
ATOM     36  C   LIG    1       10.648   6.010   4.845  0.00  0.00    +0.173 C 
ATOM     37  N   LIG    1        9.180   4.317   5.766  0.00  0.00    -0.179 NA
ATOM     38  C   LIG    1        8.417   3.346   5.334  0.00  0.00    +0.143 A 
ATOM     39  C   LIG    1        8.454   3.245   3.912  0.00  0.00    +0.023 A 
ATOM     40  C   LIG    1        7.860   2.430   2.942  0.00  0.00    +0.058 A 
BRANCH  32  41
ATOM     41  C   LIG    1        9.368   3.936  -0.230  0.00  0.00    +0.023 A 
ATOM     42  C   LIG    1        8.571   3.763  -1.355  0.00  0.00    +0.113 A 
ATOM     43  N   LIG    1        9.330   4.147  -2.425  0.00  0.00    -0.284 N 
ATOM     44  H   LIG    1        9.020   4.133  -3.386  0.00  0.00    +0.188 HD
ATOM     45  N   LIG    1       10.551   4.557  -2.080  0.00  0.00    -0.182 NA
ATOM     46  C   LIG    1       10.570   4.432  -0.772  0.00  0.00    +0.142 A 
ENDBRANCH  32  41
ENDBRANCH  30  31
ENDBRANCH   5  30
TORSDOF 8
