REMARK  Name = DB18028
REMARK                            x       y       z     vdW  Elec       q    Type
REMARK                         _______ _______ _______ _____ _____    ______ ____
ROOT
ATOM      1  N   LIG    1        1.235   0.100   0.022  0.00  0.00    -0.213 N 
ATOM      2  C   LIG    1        2.175  -0.496   0.858  0.00  0.00    +0.172 A 
ATOM      3  N   LIG    1        1.994  -0.863   2.153  0.00  0.00    -0.194 NA
ATOM      4  C   LIG    1        3.096  -1.386   2.762  0.00  0.00    +0.221 A 
ATOM      5  N   LIG    1        4.318  -1.557   2.167  0.00  0.00    -0.222 NA
ATOM      6  C   LIG    1        4.442  -1.172   0.865  0.00  0.00    +0.131 A 
ATOM      7  C   LIG    1        3.358  -0.633   0.174  0.00  0.00    +0.103 A 
ATOM      8  C   LIG    1        3.191  -0.159  -1.222  0.00  0.00    +0.279 A 
ATOM      9  O   LIG    1        4.029  -0.105  -2.123  0.00  0.00    -0.265 OA
ATOM     10  N   LIG    1        1.885   0.202  -1.255  0.00  0.00    -0.238 N 
ENDROOT
BRANCH   1  14
ATOM     11  C   LIG    1       -3.236   2.162  -0.421  0.00  0.00    +0.108 C 
ATOM     12  C   LIG    1       -2.252   1.026  -0.160  0.00  0.00    +0.078 A 
ATOM     13  N   LIG    1       -0.897   1.092  -0.256  0.00  0.00    -0.230 NA
ATOM     14  C   LIG    1       -0.167   0.001   0.115  0.00  0.00    +0.155 A 
ATOM     15  C   LIG    1       -0.782  -1.156   0.619  0.00  0.00    +0.048 A 
ATOM     16  C   LIG    1       -2.174  -1.210   0.707  0.00  0.00    +0.009 A 
ATOM     17  C   LIG    1       -2.924  -0.117   0.276  0.00  0.00    -0.023 A 
ATOM     18  C   LIG    1       -4.416   0.118   0.286  0.00  0.00    +0.040 C 
ATOM     19  C   LIG    1       -4.556   1.382  -0.566  0.00  0.00    +0.046 C 
BRANCH  11  21
ATOM     20  C   LIG    1       -1.784   4.044  -1.567  0.00  0.00    +0.007 C 
ATOM     21  C   LIG    1       -2.961   3.053  -1.666  0.00  0.00    +0.038 C 
ENDBRANCH  11  21
BRANCH  11  22
ATOM     22  O   LIG    1       -3.320   3.045   0.686  0.00  0.00    -0.382 OA
ATOM     23  H   LIG    1       -2.508   3.555   0.726  0.00  0.00    +0.211 HD
ENDBRANCH  11  22
ENDBRANCH   1  14
BRANCH   4  24
ATOM     24  N   LIG    1        2.905  -1.800   4.089  0.00  0.00    -0.284 N 
ATOM     25  H   LIG    1        1.953  -1.708   4.412  0.00  0.00    +0.155 HD
BRANCH  24  26
ATOM     26  C   LIG    1        3.796  -2.307   5.050  0.00  0.00    +0.034 A 
ATOM     27  C   LIG    1        5.143  -1.935   5.098  0.00  0.00    +0.025 A 
ATOM     28  C   LIG    1        5.981  -2.464   6.076  0.00  0.00    +0.025 A 
ATOM     29  C   LIG    1        5.489  -3.368   7.029  0.00  0.00    +0.030 A 
ATOM     30  C   LIG    1        4.134  -3.719   6.981  0.00  0.00    +0.025 A 
ATOM     31  C   LIG    1        3.294  -3.190   6.005  0.00  0.00    +0.025 A 
BRANCH  29  32
ATOM     32  N   LIG    1        6.302  -3.913   8.021  0.00  0.00    -0.333 N 
ATOM     33  C   LIG    1        5.935  -3.761   9.441  0.00  0.00    +0.086 C 
ATOM     34  C   LIG    1        6.541  -2.498  10.092  0.00  0.00    -0.060 C 
ATOM     35  N   LIG    1        8.076  -2.593  10.007  0.00  0.00    +0.380 N 
ATOM     36  H   LIG    1        8.374  -3.429  10.491  0.00  0.00    -0.082 HD
ATOM     37  C   LIG    1        8.737  -1.360  10.653  0.00  0.00    -0.096 C 
ATOM     38  C   LIG    1        8.479  -2.716   8.524  0.00  0.00    -0.060 C 
ATOM     39  C   LIG    1        7.773  -3.954   7.917  0.00  0.00    +0.086 C 
ENDBRANCH  29  32
ENDBRANCH  24  26
ENDBRANCH   4  24
BRANCH  10  40
ATOM     40  C   LIG    1        1.295   0.852  -2.438  0.00  0.00    +0.172 C 
BRANCH  40  41
ATOM     41  C   LIG    1        1.544   2.350  -2.475  0.00  0.00    -0.011 C 
ATOM     42  C   LIG    1        2.073   3.014  -3.515  0.00  0.00    +0.006 C 
ENDBRANCH  40  41
ENDBRANCH  10  40
TORSDOF 8
