REMARK  Name = DB18268
REMARK                            x       y       z     vdW  Elec       q    Type
REMARK                         _______ _______ _______ _____ _____    ______ ____
ROOT
ATOM      1  C   LIG    1        3.810   0.557   0.502  0.00  0.00    +0.099 A 
ATOM      2  C   LIG    1        4.343  -0.611  -0.051  0.00  0.00    +0.131 A 
ATOM      3  N   LIG    1        3.769  -1.749  -0.595  0.00  0.00    -0.322 N 
ATOM      4  H   LIG    1        3.116  -1.645  -1.357  0.00  0.00    +0.148 HD
ATOM      5  C   LIG    1        4.640  -2.916  -0.742  0.00  0.00    +0.104 C 
ATOM      6  C   LIG    1        5.975  -2.482  -1.386  0.00  0.00    +0.056 C 
ATOM      7  C   LIG    1        6.737  -1.388  -0.577  0.00  0.00    +0.062 C 
ATOM      8  C   LIG    1        7.455  -2.046   0.625  0.00  0.00    +0.036 C 
ATOM      9  C   LIG    1        7.725  -0.678  -1.533  0.00  0.00    +0.036 C 
ATOM     10  N   LIG    1        5.716  -0.438  -0.076  0.00  0.00    -0.244 N 
ATOM     11  N   LIG    1        6.058   0.723   0.505  0.00  0.00    -0.174 NA
ATOM     12  C   LIG    1        4.943   1.321   0.859  0.00  0.00    +0.074 A 
ATOM     13  C   LIG    1        5.044   2.672   1.541  0.00  0.00    +0.068 C 
ENDROOT
BRANCH   5  14
ATOM     14  C   LIG    1        4.000  -4.088  -1.485  0.00  0.00    -0.027 A 
ATOM     15  C   LIG    1        3.273  -3.876  -2.663  0.00  0.00    +0.005 A 
ATOM     16  C   LIG    1        2.711  -4.954  -3.341  0.00  0.00    +0.000 A 
ATOM     17  C   LIG    1        2.881  -6.245  -2.847  0.00  0.00    +0.000 A 
ATOM     18  C   LIG    1        3.610  -6.467  -1.681  0.00  0.00    +0.000 A 
ATOM     19  C   LIG    1        4.173  -5.390  -1.002  0.00  0.00    +0.005 A 
ENDBRANCH   5  14
BRANCH   1  22
ATOM     20  N   LIG    1        1.546   0.235  -0.032  0.00  0.00    -0.302 N 
ATOM     21  H   LIG    1        1.934  -0.517  -0.581  0.00  0.00    +0.150 HD
ATOM     22  C   LIG    1        2.423   0.864   0.780  0.00  0.00    +0.250 C 
ATOM     23  O   LIG    1        2.101   1.657   1.665  0.00  0.00    -0.270 OA
BRANCH  20  24
ATOM     24  C   LIG    1        0.067   0.294  -0.070  0.00  0.00    +0.059 C 
BRANCH  24  28
ATOM     25  C   LIG    1       -1.577   4.348  -0.070  0.00  0.00    -0.048 A 
ATOM     26  C   LIG    1       -0.326   4.097  -0.633  0.00  0.00    +0.004 A 
ATOM     27  C   LIG    1        0.193   2.807  -0.624  0.00  0.00    +0.006 A 
ATOM     28  C   LIG    1       -0.518   1.742  -0.048  0.00  0.00    -0.024 A 
ATOM     29  C   LIG    1       -1.780   2.012   0.505  0.00  0.00    +0.006 A 
ATOM     30  C   LIG    1       -2.303   3.302   0.499  0.00  0.00    +0.004 A 
BRANCH  25  32
ATOM     31  C   LIG    1       -2.980   6.039  -1.349  0.00  0.00    +0.009 C 
ATOM     32  C   LIG    1       -2.152   5.756  -0.088  0.00  0.00    +0.032 C 
ENDBRANCH  25  32
ENDBRANCH  24  28
BRANCH  24  33
ATOM     33  C   LIG    1       -0.382  -0.368  -1.414  0.00  0.00    +0.027 C 
ATOM     34  C   LIG    1        0.242   0.183  -2.714  0.00  0.00    +0.006 C 
ENDBRANCH  24  33
BRANCH  24  35
ATOM     35  C   LIG    1       -0.503  -0.625   1.070  0.00  0.00    +0.027 C 
ATOM     36  C   LIG    1       -0.253  -0.201   2.531  0.00  0.00    +0.006 C 
ENDBRANCH  24  35
ENDBRANCH  20  24
ENDBRANCH   1  22
TORSDOF 7
