REMARK  Name = DB18061
REMARK                            x       y       z     vdW  Elec       q    Type
REMARK                         _______ _______ _______ _____ _____    ______ ____
ROOT
ATOM      1  C   LIG    1        1.902   0.452  -1.357  0.00  0.00    +0.122 A 
ATOM      2  C   LIG    1        1.200   0.752  -2.535  0.00  0.00    +0.058 A 
ATOM      3  C   LIG    1        1.876   1.119  -3.704  0.00  0.00    +0.059 A 
ATOM      4  C   LIG    1        3.273   1.183  -3.691  0.00  0.00    +0.025 A 
ATOM      5  C   LIG    1        3.994   0.882  -2.530  0.00  0.00    +0.059 A 
ATOM      6  C   LIG    1        3.297   0.518  -1.374  0.00  0.00    +0.058 A 
ENDROOT
BRANCH   3   7
ATOM      7  C   LIG    1        1.093   1.444  -4.976  0.00  0.00    +0.418 C 
ATOM      8  F   LIG    1        1.828   1.248  -6.073  0.00  0.00    -0.166 F 
ATOM      9  F   LIG    1        0.723   2.723  -4.941  0.00  0.00    -0.166 F 
ATOM     10  F   LIG    1       -0.002   0.687  -5.075  0.00  0.00    -0.166 F 
ENDBRANCH   3   7
BRANCH   5  11
ATOM     11  C   LIG    1        5.521   0.949  -2.522  0.00  0.00    +0.418 C 
ATOM     12  F   LIG    1        6.041   0.035  -1.700  0.00  0.00    -0.166 F 
ATOM     13  F   LIG    1        5.898   2.157  -2.104  0.00  0.00    -0.166 F 
ATOM     14  F   LIG    1        6.030   0.745  -3.738  0.00  0.00    -0.166 F 
ENDBRANCH   5  11
BRANCH   1  15
ATOM     15  O   LIG    1        1.321   0.082  -0.158  0.00  0.00    -0.489 OA
BRANCH  15  17
ATOM     16  C   LIG    1       -0.387  -0.864   1.200  0.00  0.00    +0.052 C 
ATOM     17  C   LIG    1       -0.101   0.070   0.008  0.00  0.00    +0.174 C 
BRANCH  17  18
ATOM     18  C   LIG    1       -0.656   1.514   0.176  0.00  0.00    +0.044 C 
ATOM     19  C   LIG    1       -2.207   1.559   0.136  0.00  0.00    +0.082 C 
ATOM     20  C   LIG    1       -2.809   2.946   0.413  0.00  0.00    +0.141 C 
ATOM     21  O   LIG    1       -4.018   3.151   0.333  0.00  0.00    -0.297 OA
ATOM     22  C   LIG    1       -1.817   4.069   0.744  0.00  0.00    +0.148 C 
ATOM     23  C   LIG    1       -0.632   3.663   1.631  0.00  0.00    +0.141 C 
ATOM     24  O   LIG    1       -0.156   4.429   2.466  0.00  0.00    -0.297 OA
ATOM     25  C   LIG    1       -0.038   2.267   1.385  0.00  0.00    +0.082 C 
ENDBRANCH  17  18
ENDBRANCH  15  17
ENDBRANCH   1  15
TORSDOF 5
