REMARK  Name = DB18066
REMARK                            x       y       z     vdW  Elec       q    Type
REMARK                         _______ _______ _______ _____ _____    ______ ____
ROOT
ATOM      1  N   LIG    1        1.354  -0.127   0.408  0.00  0.00    -0.149 NA
ATOM      2  N   LIG    1        1.991   0.970   0.503  0.00  0.00    -0.149 NA
ENDROOT
BRANCH   1   6
ATOM      3  C   LIG    1       -2.855  -0.030   0.065  0.00  0.00    -0.037 A 
ATOM      4  C   LIG    1       -2.168   1.174   0.219  0.00  0.00    +0.006 A 
ATOM      5  C   LIG    1       -0.780   1.175   0.335  0.00  0.00    +0.030 A 
ATOM      6  C   LIG    1       -0.045  -0.026   0.299  0.00  0.00    +0.086 A 
ATOM      7  C   LIG    1       -0.756  -1.221   0.145  0.00  0.00    +0.030 A 
ATOM      8  C   LIG    1       -2.144  -1.230   0.027  0.00  0.00    +0.006 A 
BRANCH   3   9
ATOM      9  C   LIG    1       -4.380  -0.034  -0.070  0.00  0.00    +0.155 C 
BRANCH   9  10
ATOM     10  C   LIG    1       -5.112   0.085   1.288  0.00  0.00    +0.309 C 
ATOM     11  O   LIG    1       -6.143   0.795   1.311  0.00  0.00    -0.251 OA
BRANCH  10  12
ATOM     12  O   LIG    1       -4.676  -0.553   2.275  0.00  0.00    -0.480 OA
ATOM     13  H   LIG    1       -4.259  -1.383   2.150  0.00  0.00    +0.295 HD
ENDBRANCH  10  12
ENDBRANCH   9  10
ENDBRANCH   3   9
ENDBRANCH   1   6
BRANCH   2  14
ATOM     14  C   LIG    1        3.391   0.868   0.614  0.00  0.00    +0.087 A 
ATOM     15  C   LIG    1        4.127  -0.333   0.648  0.00  0.00    +0.048 A 
ATOM     16  C   LIG    1        5.536  -0.383   0.762  0.00  0.00    +0.102 A 
ATOM     17  C   LIG    1        6.209   0.866   0.844  0.00  0.00    +0.131 A 
ATOM     18  C   LIG    1        5.494   2.061   0.812  0.00  0.00    +0.048 A 
ATOM     19  C   LIG    1        4.110   2.058   0.699  0.00  0.00    +0.033 A 
BRANCH  16  20
ATOM     20  C   LIG    1        6.243  -1.734   0.792  0.00  0.00    +0.340 C 
ATOM     21  O   LIG    1        5.552  -2.780   0.739  0.00  0.00    -0.245 OA
BRANCH  20  22
ATOM     22  O   LIG    1        7.493  -1.788   0.868  0.00  0.00    -0.477 OA
ATOM     23  H   LIG    1        7.925  -2.619   0.886  0.00  0.00    +0.295 HD
ENDBRANCH  20  22
ENDBRANCH  16  20
BRANCH  17  24
ATOM     24  O   LIG    1        7.572   0.998   0.960  0.00  0.00    -0.506 OA
ATOM     25  H   LIG    1        7.855   1.914   1.008  0.00  0.00    +0.292 HD
ENDBRANCH  17  24
ENDBRANCH   2  14
TORSDOF 8
