REMARK  Name = DB18308
REMARK                            x       y       z     vdW  Elec       q    Type
REMARK                         _______ _______ _______ _____ _____    ______ ____
ROOT
ATOM      1  C   LIG    1       -2.126   0.478  -0.368  0.00  0.00    +0.203 C 
ATOM      2  C   LIG    1       -2.567   0.394   1.111  0.00  0.00    +0.253 C 
ATOM      3  C   LIG    1       -2.225  -0.993   1.701  0.00  0.00    +0.265 C 
ATOM      4  C   LIG    1       -0.766  -1.406   1.368  0.00  0.00    +0.276 C 
ATOM      5  C   LIG    1       -0.485  -1.211  -0.129  0.00  0.00    +0.295 C 
ATOM      6  O   LIG    1       -0.746   0.124  -0.473  0.00  0.00    -0.337 OA
ENDROOT
BRANCH   1   7
ATOM      7  C   LIG    1       -2.337   1.874  -0.998  0.00  0.00    +0.267 C 
BRANCH   7   8
ATOM      8  O   LIG    1       -1.710   2.922  -0.259  0.00  0.00    -0.462 OA
BRANCH   8  10
ATOM      9  C   LIG    1        0.033   4.393   0.446  0.00  0.00    +0.136 C 
ATOM     10  C   LIG    1       -0.433   3.294  -0.499  0.00  0.00    +0.304 C 
ATOM     11  O   LIG    1        0.312   2.838  -1.369  0.00  0.00    -0.251 OA
ENDBRANCH   8  10
ENDBRANCH   7   8
ENDBRANCH   1   7
BRANCH   2  12
ATOM     12  O   LIG    1       -3.970   0.659   1.199  0.00  0.00    -0.455 OA
BRANCH  12  13
ATOM     13  C   LIG    1       -4.504   1.368   2.220  0.00  0.00    +0.304 C 
ATOM     14  O   LIG    1       -3.890   1.860   3.168  0.00  0.00    -0.251 OA
ATOM     15  C   LIG    1       -6.014   1.514   2.093  0.00  0.00    +0.136 C 
ENDBRANCH  12  13
ENDBRANCH   2  12
BRANCH   3  16
ATOM     16  O   LIG    1       -2.428  -0.952   3.116  0.00  0.00    -0.454 OA
BRANCH  16  17
ATOM     17  C   LIG    1       -3.044  -1.952   3.785  0.00  0.00    +0.304 C 
ATOM     18  O   LIG    1       -3.487  -2.994   3.300  0.00  0.00    -0.251 OA
ATOM     19  C   LIG    1       -3.142  -1.666   5.277  0.00  0.00    +0.136 C 
ENDBRANCH  16  17
ENDBRANCH   3  16
BRANCH   4  20
ATOM     20  O   LIG    1       -0.507  -2.767   1.723  0.00  0.00    -0.452 OA
BRANCH  20  21
ATOM     21  C   LIG    1        0.170  -3.099   2.845  0.00  0.00    +0.304 C 
ATOM     22  O   LIG    1        0.634  -2.320   3.678  0.00  0.00    -0.251 OA
ATOM     23  C   LIG    1        0.305  -4.607   3.010  0.00  0.00    +0.136 C 
ENDBRANCH  20  21
ENDBRANCH   4  20
BRANCH   5  24
ATOM     24  O   LIG    1        0.865  -1.517  -0.332  0.00  0.00    -0.350 OA
BRANCH  24  25
ATOM     25  C   LIG    1        1.316  -1.559  -1.684  0.00  0.00    +0.145 C 
BRANCH  25  26
ATOM     26  C   LIG    1        1.563  -0.131  -2.232  0.00  0.00    -0.047 C 
BRANCH  26  27
ATOM     27  N   LIG    1        2.518  -0.055  -3.460  0.00  0.00    +0.380 N 
ATOM     28  C   LIG    1        2.017  -0.987  -4.595  0.00  0.00    -0.092 C 
ATOM     29  C   LIG    1        3.961  -0.472  -3.085  0.00  0.00    -0.092 C 
BRANCH  27  30
ATOM     30  C   LIG    1        2.582   1.450  -3.863  0.00  0.00    -0.066 C 
ATOM     31  C   LIG    1        2.860   1.911  -5.283  0.00  0.00    -0.016 C 
ATOM     32  C   LIG    1        1.486   2.099  -4.687  0.00  0.00    -0.016 C 
ENDBRANCH  27  30
ENDBRANCH  26  27
ENDBRANCH  25  26
ENDBRANCH  24  25
ENDBRANCH   5  24
TORSDOF 14
