REMARK  Name = DB18058
REMARK                            x       y       z     vdW  Elec       q    Type
REMARK                         _______ _______ _______ _____ _____    ______ ____
ROOT
ATOM      1  C   LIG    1        1.483  -0.024  -0.042  0.00  0.00    +0.043 C 
ATOM      2  C   LIG    1        2.004   0.715   1.238  0.00  0.00    +0.026 C 
ENDROOT
BRANCH   1   7
ATOM      3  C   LIG    1       -2.263  -1.081  -0.218  0.00  0.00    +0.166 A 
ATOM      4  C   LIG    1       -2.892   0.138   0.062  0.00  0.00    +0.201 A 
ATOM      5  C   LIG    1       -2.146   1.297   0.302  0.00  0.00    +0.166 A 
ATOM      6  C   LIG    1       -0.746   1.218   0.266  0.00  0.00    +0.054 A 
ATOM      7  C   LIG    1       -0.079   0.015  -0.009  0.00  0.00    -0.026 A 
ATOM      8  C   LIG    1       -0.861  -1.124  -0.255  0.00  0.00    +0.054 A 
BRANCH   4   9
ATOM      9  O   LIG    1       -4.264   0.200   0.098  0.00  0.00    -0.501 OA
ATOM     10  H   LIG    1       -4.587   1.082   0.300  0.00  0.00    +0.292 HD
ENDBRANCH   4   9
BRANCH   3  11
ATOM     11  O   LIG    1       -3.072  -2.181  -0.450  0.00  0.00    -0.488 OA
BRANCH  11  13
ATOM     12  C   LIG    1       -3.599  -4.483  -0.896  0.00  0.00    +0.048 C 
ATOM     13  C   LIG    1       -2.482  -3.451  -0.715  0.00  0.00    +0.226 C 
ENDBRANCH  11  13
ENDBRANCH   3  11
BRANCH   5  14
ATOM     14  O   LIG    1       -2.846   2.464   0.561  0.00  0.00    -0.488 OA
BRANCH  14  15
ATOM     15  C   LIG    1       -2.136   3.678   0.789  0.00  0.00    +0.226 C 
ATOM     16  C   LIG    1       -3.149   4.801   1.032  0.00  0.00    +0.048 C 
ENDBRANCH  14  15
ENDBRANCH   5  14
ENDBRANCH   1   7
BRANCH   1  17
ATOM     17  C   LIG    1        2.040   0.735  -1.289  0.00  0.00    -0.026 A 
ATOM     18  C   LIG    1        1.227   1.081  -2.379  0.00  0.00    +0.054 A 
ATOM     19  C   LIG    1        1.735   1.765  -3.494  0.00  0.00    +0.166 A 
ATOM     20  C   LIG    1        3.094   2.101  -3.515  0.00  0.00    +0.201 A 
ATOM     21  C   LIG    1        3.938   1.764  -2.452  0.00  0.00    +0.166 A 
ATOM     22  C   LIG    1        3.397   1.087  -1.349  0.00  0.00    +0.054 A 
BRANCH  20  23
ATOM     23  O   LIG    1        3.611   2.768  -4.600  0.00  0.00    -0.501 OA
ATOM     24  H   LIG    1        4.549   2.949  -4.508  0.00  0.00    +0.292 HD
ENDBRANCH  20  23
BRANCH  19  25
ATOM     25  O   LIG    1        0.968   2.130  -4.588  0.00  0.00    -0.488 OA
BRANCH  25  26
ATOM     26  C   LIG    1       -0.426   1.833  -4.606  0.00  0.00    +0.226 C 
ATOM     27  C   LIG    1       -1.028   2.375  -5.906  0.00  0.00    +0.048 C 
ENDBRANCH  25  26
ENDBRANCH  19  25
BRANCH  21  28
ATOM     28  O   LIG    1        5.272   2.123  -2.558  0.00  0.00    -0.488 OA
BRANCH  28  29
ATOM     29  C   LIG    1        6.180   1.784  -1.513  0.00  0.00    +0.226 C 
ATOM     30  C   LIG    1        7.575   2.286  -1.894  0.00  0.00    +0.048 C 
ENDBRANCH  28  29
ENDBRANCH  21  28
ENDBRANCH   1  17
BRANCH   1  31
ATOM     31  C   LIG    1        2.013  -1.493   0.009  0.00  0.00    -0.026 A 
ATOM     32  C   LIG    1        1.893  -2.244   1.189  0.00  0.00    +0.054 A 
ATOM     33  C   LIG    1        2.351  -3.567   1.275  0.00  0.00    +0.166 A 
ATOM     34  C   LIG    1        2.949  -4.146   0.150  0.00  0.00    +0.201 A 
ATOM     35  C   LIG    1        3.086  -3.431  -1.046  0.00  0.00    +0.166 A 
ATOM     36  C   LIG    1        2.610  -2.112  -1.101  0.00  0.00    +0.054 A 
BRANCH  34  37
ATOM     37  O   LIG    1        3.404  -5.441   0.222  0.00  0.00    -0.501 OA
ATOM     38  H   LIG    1        3.263  -5.833   1.087  0.00  0.00    +0.292 HD
ENDBRANCH  34  37
BRANCH  33  39
ATOM     39  O   LIG    1        2.245  -4.347   2.414  0.00  0.00    -0.488 OA
BRANCH  39  40
ATOM     40  C   LIG    1        1.623  -3.814   3.580  0.00  0.00    +0.226 C 
ATOM     41  C   LIG    1        1.630  -4.885   4.674  0.00  0.00    +0.048 C 
ENDBRANCH  39  40
ENDBRANCH  33  39
BRANCH  35  42
ATOM     42  O   LIG    1        3.685  -4.078  -2.114  0.00  0.00    -0.488 OA
BRANCH  42  43
ATOM     43  C   LIG    1        3.871  -3.387  -3.346  0.00  0.00    +0.226 C 
ATOM     44  C   LIG    1        4.582  -4.319  -4.332  0.00  0.00    +0.048 C 
ENDBRANCH  42  43
ENDBRANCH  35  42
ENDBRANCH   1  31
TORSDOF 18
