REMARK  Name = DB18632
REMARK                            x       y       z     vdW  Elec       q    Type
REMARK                         _______ _______ _______ _____ _____    ______ ____
ROOT
ATOM      1  C   LIG    1        1.344   0.073  -0.301  0.00  0.00    +0.018 A 
ATOM      2  C   LIG    1        1.979   0.918  -1.224  0.00  0.00    +0.133 A 
ATOM      3  F   LIG    1        1.249   1.689  -2.065  0.00  0.00    -0.205 F 
ATOM      4  C   LIG    1        3.372   0.971  -1.300  0.00  0.00    +0.062 A 
ATOM      5  C   LIG    1        4.160   0.176  -0.453  0.00  0.00    +0.038 A 
ATOM      6  C   LIG    1        3.530  -0.650   0.480  0.00  0.00    +0.024 A 
ATOM      7  C   LIG    1        2.139  -0.703   0.551  0.00  0.00    +0.013 A 
ENDROOT
BRANCH   1  16
ATOM      8  C   LIG    1       -2.962  -0.095  -0.020  0.00  0.00    +0.003 A 
ATOM      9  C   LIG    1       -2.213  -1.259  -0.274  0.00  0.00    +0.048 A 
ATOM     10  C   LIG    1       -2.662  -2.674  -0.518  0.00  0.00    +0.245 C 
ATOM     11  O   LIG    1       -3.799  -3.138  -0.547  0.00  0.00    -0.270 OA
ATOM     12  N   LIG    1       -1.530  -3.367  -0.716  0.00  0.00    -0.307 N 
ATOM     13  H   LIG    1       -1.520  -4.358  -0.909  0.00  0.00    +0.149 HD
ATOM     14  C   LIG    1       -0.307  -2.591  -0.645  0.00  0.00    +0.141 C 
ATOM     15  C   LIG    1       -0.826  -1.210  -0.360  0.00  0.00    -0.010 A 
ATOM     16  C   LIG    1       -0.139   0.004  -0.210  0.00  0.00    -0.010 A 
ATOM     17  C   LIG    1       -0.885   1.164   0.026  0.00  0.00    +0.009 A 
ATOM     18  C   LIG    1       -2.275   1.116   0.121  0.00  0.00    +0.008 A 
BRANCH   8  23
ATOM     19  C   LIG    1       -7.693  -1.418   1.303  0.00  0.00    +0.031 C 
ATOM     20  C   LIG    1       -6.594  -0.587   0.686  0.00  0.00    +0.055 C 
ATOM     21  N   LIG    1       -5.263  -0.968   0.757  0.00  0.00    -0.284 NA
ATOM     22  H   LIG    1       -4.932  -1.811   1.206  0.00  0.00    +0.125 HD
ATOM     23  C   LIG    1       -4.450  -0.058   0.114  0.00  0.00    +0.135 C 
ATOM     24  N   LIG    1       -5.299   0.920  -0.357  0.00  0.00    -0.286 NA
ATOM     25  H   LIG    1       -5.010   1.738  -0.875  0.00  0.00    +0.124 HD
ATOM     26  C   LIG    1       -6.606   0.611  -0.021  0.00  0.00    +0.096 C 
ENDBRANCH   8  23
ENDBRANCH   1  16
BRANCH   5  27
ATOM     27  N   LIG    1        5.567   0.171  -0.449  0.00  0.00    -0.269 N 
ATOM     28  H   LIG    1        5.984  -0.223   0.381  0.00  0.00    +0.156 HD
ATOM     29  C   LIG    1        6.413   0.546  -1.429  0.00  0.00    +0.308 C 
ATOM     30  N   LIG    1        7.688   0.428  -1.004  0.00  0.00    -0.269 N 
ATOM     31  H   LIG    1        7.818   0.034  -0.085  0.00  0.00    +0.156 HD
ATOM     32  O   LIG    1        6.070   0.919  -2.552  0.00  0.00    -0.252 OA
BRANCH  30  33
ATOM     33  C   LIG    1        8.887   0.725  -1.681  0.00  0.00    +0.035 A 
ATOM     34  C   LIG    1        8.977   1.486  -2.860  0.00  0.00    +0.035 A 
ATOM     35  C   LIG    1       10.219   1.732  -3.461  0.00  0.00    +0.057 A 
ATOM     36  C   LIG    1       11.378   1.218  -2.868  0.00  0.00    +0.012 A 
ATOM     37  C   LIG    1       11.297   0.473  -1.693  0.00  0.00    +0.002 A 
ATOM     38  C   LIG    1       10.059   0.231  -1.102  0.00  0.00    +0.023 A 
BRANCH  35  39
ATOM     39  C   LIG    1       10.290   2.556  -4.746  0.00  0.00    +0.417 C 
ATOM     40  F   LIG    1       11.472   2.439  -5.354  0.00  0.00    -0.166 F 
ATOM     41  F   LIG    1       10.098   3.842  -4.451  0.00  0.00    -0.166 F 
ATOM     42  F   LIG    1        9.346   2.168  -5.604  0.00  0.00    -0.166 F 
ENDBRANCH  35  39
ENDBRANCH  30  33
ENDBRANCH   5  27
TORSDOF 5
