REMARK  Name = DB18310
REMARK                            x       y       z     vdW  Elec       q    Type
REMARK                         _______ _______ _______ _____ _____    ______ ____
ROOT
ATOM      1  C   LIG    1       -0.817   0.912   0.003  0.00  0.00    +0.027 C 
ATOM      2  C   LIG    1       -0.064  -0.205  -0.007  0.00  0.00    +0.135 C 
ENDROOT
BRANCH   1   6
ATOM      3  C   LIG    1       -5.116   1.284  -0.000  0.00  0.00    +0.059 A 
ATOM      4  C   LIG    1       -4.512   0.013  -0.000  0.00  0.00    +0.015 A 
ATOM      5  C   LIG    1       -3.127  -0.128   0.001  0.00  0.00    +0.009 A 
ATOM      6  C   LIG    1       -2.296   0.999   0.002  0.00  0.00    -0.024 A 
ATOM      7  C   LIG    1       -2.883   2.265   0.001  0.00  0.00    +0.009 A 
ATOM      8  C   LIG    1       -4.268   2.407   0.000  0.00  0.00    +0.015 A 
BRANCH   3   9
ATOM      9  C   LIG    1       -6.625   1.439  -0.001  0.00  0.00    +0.337 C 
ATOM     10  O   LIG    1       -7.338   0.407  -0.001  0.00  0.00    -0.245 OA
BRANCH   9  11
ATOM     11  O   LIG    1       -7.115   2.594  -0.001  0.00  0.00    -0.477 OA
ATOM     12  H   LIG    1       -7.374   2.992  -0.808  0.00  0.00    +0.295 HD
ENDBRANCH   9  11
ENDBRANCH   3   9
ENDBRANCH   1   6
BRANCH   2  13
ATOM     13  S   LIG    1        1.724  -0.054  -0.003  0.00  0.00    -0.006 S 
ATOM     14  O   LIG    1        2.115   0.564   1.269  0.00  0.00    -0.170 OA
ATOM     15  O   LIG    1        2.120   0.557  -1.276  0.00  0.00    -0.170 OA
BRANCH  13  16
ATOM     16  C   LIG    1        2.310  -1.852   0.003  0.00  0.00    +0.206 C 
BRANCH  16  17
ATOM     17  C   LIG    1        3.826  -1.950   0.005  0.00  0.00    -0.026 A 
ATOM     18  C   LIG    1        4.524  -1.982  -1.204  0.00  0.00    +0.006 A 
ATOM     19  C   LIG    1        5.914  -2.057  -1.201  0.00  0.00    +0.020 A 
ATOM     20  C   LIG    1        6.603  -2.095   0.010  0.00  0.00    +0.041 A 
ATOM     21 CL   LIG    1        8.326  -2.188   0.014  0.00  0.00    -0.084 Cl
ATOM     22  C   LIG    1        5.910  -2.057   1.220  0.00  0.00    +0.020 A 
ATOM     23  C   LIG    1        4.519  -1.982   1.217  0.00  0.00    +0.006 A 
ENDBRANCH  16  17
ENDBRANCH  13  16
ENDBRANCH   2  13
TORSDOF 6
