REMARK  Name = DB18096
REMARK                            x       y       z     vdW  Elec       q    Type
REMARK                         _______ _______ _______ _____ _____    ______ ____
ROOT
ATOM      1  O   LIG    1       -0.628   1.204  -0.252  0.00  0.00    -0.370 OA
ENDROOT
BRANCH   1   3
ATOM      2  C   LIG    1       -2.896   0.751  -1.109  0.00  0.00    +0.043 C 
ATOM      3  C   LIG    1       -2.023   1.362   0.007  0.00  0.00    +0.146 C 
BRANCH   3   4
ATOM      4  C   LIG    1       -2.303   2.859   0.194  0.00  0.00    -0.011 A 
ATOM      5  C   LIG    1       -2.958   3.374   1.335  0.00  0.00    -0.012 A 
ATOM      6  C   LIG    1       -3.123   4.761   1.451  0.00  0.00    +0.009 A 
ATOM      7  C   LIG    1       -2.671   5.627   0.458  0.00  0.00    +0.001 A 
ATOM      8  C   LIG    1       -2.042   5.116  -0.673  0.00  0.00    +0.000 A 
ATOM      9  C   LIG    1       -1.859   3.742  -0.801  0.00  0.00    +0.007 A 
BRANCH   5  10
ATOM     10  C   LIG    1       -3.482   2.511   2.428  0.00  0.00    -0.017 A 
ATOM     11  C   LIG    1       -2.970   2.616   3.723  0.00  0.00    +0.012 A 
ATOM     12  C   LIG    1       -3.441   1.813   4.769  0.00  0.00    -0.036 A 
ATOM     13  C   LIG    1       -2.737   1.969   6.117  0.00  0.00    +0.044 C 
ATOM     14  C   LIG    1       -4.481   0.874   4.529  0.00  0.00    +0.062 A 
ATOM     15  C   LIG    1       -4.983   0.784   3.216  0.00  0.00    +0.016 A 
ATOM     16  C   LIG    1       -4.498   1.587   2.188  0.00  0.00    +0.009 A 
BRANCH  14  17
ATOM     17  C   LIG    1       -5.078  -0.015   5.601  0.00  0.00    +0.337 C 
ATOM     18  O   LIG    1       -5.188   0.429   6.768  0.00  0.00    -0.245 OA
BRANCH  17  19
ATOM     19  O   LIG    1       -5.476  -1.158   5.270  0.00  0.00    -0.477 OA
ATOM     20  H   LIG    1       -5.849  -1.728   5.912  0.00  0.00    +0.295 HD
ENDBRANCH  17  19
ENDBRANCH  14  17
ENDBRANCH   5  10
ENDBRANCH   3   4
ENDBRANCH   1   3
BRANCH   1  21
ATOM     21  C   LIG    1       -0.121  -0.128  -0.239  0.00  0.00    +0.190 C 
BRANCH  21  22
ATOM     22  C   LIG    1        1.418  -0.095  -0.325  0.00  0.00    +0.123 C 
BRANCH  22  23
ATOM     23  O   LIG    1        1.935   0.486   0.861  0.00  0.00    -0.391 OA
ATOM     24  H   LIG    1        1.537   0.048   1.617  0.00  0.00    +0.210 HD
ENDBRANCH  22  23
BRANCH  22  25
ATOM     25  C   LIG    1        1.922   0.638  -1.590  0.00  0.00    -0.048 C 
BRANCH  25  26
ATOM     26  N   LIG    1        3.465   0.688  -1.618  0.00  0.00    +0.384 N 
ATOM     27  H   LIG    1        3.806  -0.262  -1.585  0.00  0.00    -0.085 HD
ATOM     28  H   LIG    1        3.769   1.142  -0.768  0.00  0.00    -0.085 HD
BRANCH  26  29
ATOM     29  C   LIG    1        4.169   1.395  -2.805  0.00  0.00    -0.070 C 
ATOM     30  C   LIG    1        3.755   2.886  -2.806  0.00  0.00    -0.010 C 
ATOM     31  C   LIG    1        3.744   0.713  -4.129  0.00  0.00    -0.010 C 
BRANCH  29  32
ATOM     32  C   LIG    1        5.705   1.288  -2.566  0.00  0.00    +0.022 C 
BRANCH  32  33
ATOM     33  C   LIG    1        6.287  -0.125  -2.520  0.00  0.00    -0.046 A 
ATOM     34  C   LIG    1        6.389  -0.810  -1.304  0.00  0.00    +0.043 A 
ATOM     35  C   LIG    1        6.924  -2.099  -1.261  0.00  0.00    +0.142 A 
ATOM     36  F   LIG    1        7.009  -2.747  -0.076  0.00  0.00    -0.204 F 
ATOM     37  C   LIG    1        7.367  -2.710  -2.438  0.00  0.00    +0.076 A 
ATOM     38 CL   LIG    1        8.030  -4.305  -2.403  0.00  0.00    -0.081 Cl
ATOM     39  C   LIG    1        7.275  -2.027  -3.652  0.00  0.00    +0.023 A 
ATOM     40  C   LIG    1        6.740  -0.740  -3.692  0.00  0.00    +0.005 A 
ENDBRANCH  32  33
ENDBRANCH  29  32
ENDBRANCH  26  29
ENDBRANCH  25  26
ENDBRANCH  22  25
ENDBRANCH  21  22
ENDBRANCH   1  21
TORSDOF 13
