REMARK  Name = DB18573
REMARK                            x       y       z     vdW  Elec       q    Type
REMARK                         _______ _______ _______ _____ _____    ______ ____
ROOT
ATOM      1  C   UNK    1        1.811  -0.039  -1.324  0.00  0.00    +0.240 C 
ENDROOT
BRANCH   1   2
ATOM      2  C   UNK    1        0.279  -0.079  -1.511  0.00  0.00    +0.279 C 
BRANCH   2   3
ATOM      3  O   UNK    1       -0.294   1.201  -1.275  0.00  0.00    -0.461 OA
BRANCH   3   4
ATOM      4  C   UNK    1       -1.625   1.387  -1.381  0.00  0.00    +0.307 C 
ATOM      5  O   UNK    1       -2.457   0.520  -1.658  0.00  0.00    -0.251 OA
BRANCH   4   6
ATOM      6  C   UNK    1       -2.018   2.843  -1.100  0.00  0.00    +0.120 C 
BRANCH   6   7
ATOM      7  C   UNK    1       -3.540   3.107  -1.094  0.00  0.00    +0.011 C 
BRANCH   7   8
ATOM      8  C   UNK    1       -3.918   4.583  -0.849  0.00  0.00    +0.001 C 
BRANCH   8   9
ATOM      9  C   UNK    1       -3.438   5.185   0.489  0.00  0.00    +0.000 C 
BRANCH   9  10
ATOM     10  C   UNK    1       -3.959   4.454   1.741  0.00  0.00    +0.000 C 
BRANCH  10  11
ATOM     11  C   UNK    1       -3.565   5.161   3.053  0.00  0.00    +0.004 C 
BRANCH  11  12
ATOM     12  C   UNK    1       -3.976   4.399   4.327  0.00  0.00    +0.027 C 
BRANCH  12  14
ATOM     13  C   UNK    1       -6.292   4.923   5.305  0.00  0.00    -0.031 C 
ATOM     14  C   UNK    1       -5.476   4.216   4.500  0.00  0.00    -0.031 C 
BRANCH  13  15
ATOM     15  C   UNK    1       -5.909   6.101   6.186  0.00  0.00    +0.027 C 
BRANCH  15  16
ATOM     16  C   UNK    1       -5.781   5.730   7.672  0.00  0.00    +0.004 C 
BRANCH  16  17
ATOM     17  C   UNK    1       -5.430   6.940   8.560  0.00  0.00    +0.000 C 
BRANCH  17  18
ATOM     18  C   UNK    1       -5.321   6.618  10.063  0.00  0.00    +0.000 C 
BRANCH  18  19
ATOM     19  C   UNK    1       -4.127   5.716  10.433  0.00  0.00    -0.000 C 
BRANCH  19  20
ATOM     20  C   UNK    1       -3.988   5.497  11.950  0.00  0.00    -0.000 C 
BRANCH  20  22
ATOM     21  C   UNK    1       -2.646   4.387  13.831  0.00  0.00    +0.004 C 
ATOM     22  C   UNK    1       -2.793   4.599  12.318  0.00  0.00    -0.003 C 
ENDBRANCH  20  22
ENDBRANCH  19  20
ENDBRANCH  18  19
ENDBRANCH  17  18
ENDBRANCH  16  17
ENDBRANCH  15  16
ENDBRANCH  13  15
ENDBRANCH  12  14
ENDBRANCH  11  12
ENDBRANCH  10  11
ENDBRANCH   9  10
ENDBRANCH   8   9
ENDBRANCH   7   8
ENDBRANCH   6   7
ENDBRANCH   4   6
ENDBRANCH   3   4
ENDBRANCH   2   3
ENDBRANCH   1   2
BRANCH   1  23
ATOM     23  O   UNK    1        2.386  -1.332  -1.510  0.00  0.00    -0.456 OA
BRANCH  23  24
ATOM     24  C   UNK    1        2.303  -2.294  -0.564  0.00  0.00    +0.308 C 
ATOM     25  O   UNK    1        1.760  -2.187   0.537  0.00  0.00    -0.251 OA
BRANCH  24  26
ATOM     26  C   UNK    1        2.981  -3.599  -0.989  0.00  0.00    +0.120 C 
BRANCH  26  27
ATOM     27  C   UNK    1        2.208  -4.402  -2.058  0.00  0.00    +0.011 C 
BRANCH  27  28
ATOM     28  C   UNK    1        0.770  -4.794  -1.658  0.00  0.00    +0.001 C 
BRANCH  28  29
ATOM     29  C   UNK    1        0.137  -5.832  -2.606  0.00  0.00    +0.000 C 
BRANCH  29  30
ATOM     30  C   UNK    1       -1.376  -6.026  -2.398  0.00  0.00    +0.000 C 
BRANCH  30  31
ATOM     31  C   UNK    1       -1.766  -6.612  -1.025  0.00  0.00    +0.004 C 
BRANCH  31  32
ATOM     32  C   UNK    1       -3.278  -6.860  -0.874  0.00  0.00    +0.027 C 
BRANCH  32  33
ATOM     33  C   UNK    1       -4.115  -5.590  -0.864  0.00  0.00    -0.031 C 
ATOM     34  C   UNK    1       -4.921  -5.132  -1.842  0.00  0.00    -0.031 C 
BRANCH  34  35
ATOM     35  C   UNK    1       -5.186  -5.766  -3.198  0.00  0.00    +0.027 C 
BRANCH  35  36
ATOM     36  C   UNK    1       -4.602  -4.948  -4.361  0.00  0.00    +0.004 C 
BRANCH  36  37
ATOM     37  C   UNK    1       -4.872  -5.575  -5.740  0.00  0.00    +0.000 C 
BRANCH  37  38
ATOM     38  C   UNK    1       -4.226  -4.780  -6.891  0.00  0.00    +0.000 C 
BRANCH  38  39
ATOM     39  C   UNK    1       -4.408  -5.412  -8.285  0.00  0.00    -0.000 C 
BRANCH  39  40
ATOM     40  C   UNK    1       -5.862  -5.401  -8.803  0.00  0.00    -0.000 C 
BRANCH  40  41
ATOM     41  C   UNK    1       -6.042  -6.030 -10.198  0.00  0.00    -0.003 C 
ATOM     42  C   UNK    1       -5.370  -5.249 -11.339  0.00  0.00    +0.004 C 
ENDBRANCH  40  41
ENDBRANCH  39  40
ENDBRANCH  38  39
ENDBRANCH  37  38
ENDBRANCH  36  37
ENDBRANCH  35  36
ENDBRANCH  34  35
ENDBRANCH  32  33
ENDBRANCH  31  32
ENDBRANCH  30  31
ENDBRANCH  29  30
ENDBRANCH  28  29
ENDBRANCH  27  28
ENDBRANCH  26  27
ENDBRANCH  24  26
ENDBRANCH  23  24
ENDBRANCH   1  23
BRANCH   1  43
ATOM     43  C   UNK    1        2.523   0.970  -2.253  0.00  0.00    +0.220 C 
BRANCH  43  44
ATOM     44  O   UNK    1        2.171   0.861  -3.629  0.00  0.00    -0.283 OA
BRANCH  44  45
ATOM     45  P   UNK    1        2.930  -0.359  -4.601  0.00  0.00    +0.475 P 
ATOM     46  O   UNK    1        2.944   0.134  -6.032  0.00  0.00    -0.227 OA
BRANCH  45  47
ATOM     47  O   UNK    1        4.169  -0.873  -3.899  0.00  0.00    -0.302 OA
ATOM     48  H   UNK    1        4.877  -0.214  -3.967  0.00  0.00    +0.222 HD
ENDBRANCH  45  47
BRANCH  45  49
ATOM     49  O   UNK    1        1.699  -1.562  -4.454  0.00  0.00    -0.288 OA
BRANCH  49  50
ATOM     50  C   UNK    1        0.476  -1.331  -5.135  0.00  0.00    +0.167 C 
BRANCH  50  51
ATOM     51  C   UNK    1       -0.404  -2.602  -5.011  0.00  0.00    +0.062 C 
BRANCH  51  52
ATOM     52  N   UNK    1       -0.589  -3.227  -6.403  0.00  0.00    +0.388 N 
ATOM     53  H   UNK    1       -1.056  -2.576  -7.018  0.00  0.00    -0.089 HD
ATOM     54  H   UNK    1        0.313  -3.456  -6.797  0.00  0.00    -0.089 HD
ATOM     55  H   UNK    1       -1.135  -4.074  -6.333  0.00  0.00    -0.089 HD
ENDBRANCH  51  52
BRANCH  51  56
ATOM     56  C   UNK    1       -1.795  -2.308  -4.398  0.00  0.00    +0.292 C 
ATOM     57  O   UNK    1       -1.848  -2.275  -3.150  0.00  0.00    -0.253 OA
BRANCH  56  58
ATOM     58  O   UNK    1       -2.778  -2.097  -5.147  0.00  0.00    -0.482 OA
ATOM     59  H   UNK    1       -3.620  -1.919  -4.776  0.00  0.00    +0.295 HD
ENDBRANCH  56  58
ENDBRANCH  51  56
ENDBRANCH  50  51
ENDBRANCH  49  50
ENDBRANCH  45  49
ENDBRANCH  44  45
ENDBRANCH  43  44
ENDBRANCH   1  43
TORSDOF 45
