REMARK  Name = DB18035
REMARK                            x       y       z     vdW  Elec       q    Type
REMARK                         _______ _______ _______ _____ _____    ______ ____
ROOT
ATOM      1  C   LIG    1       -0.281  -0.914  -1.115  0.00  0.00    +0.141 C 
ATOM      2  N   LIG    1        0.510   0.231  -0.602  0.00  0.00    -0.243 N 
ATOM      3  C   LIG    1        1.869   0.119  -0.419  0.00  0.00    +0.313 C 
ATOM      4  N   LIG    1        2.365  -1.143  -0.498  0.00  0.00    -0.254 N 
ATOM      5  H   LIG    1        1.699  -1.871  -0.713  0.00  0.00    +0.158 HD
ATOM      6  O   LIG    1        2.596   1.090  -0.192  0.00  0.00    -0.252 OA
ENDROOT
BRANCH   2   7
ATOM      7  C   LIG    1       -0.197   1.458  -0.392  0.00  0.00    +0.129 A 
ATOM      8  N   LIG    1       -1.262   1.717  -1.202  0.00  0.00    -0.229 NA
ATOM      9  CA  LIG    1       -1.987   2.857  -1.053  0.00  0.00    +0.110 A 
ATOM     10  C   LIG    1       -1.662   3.815  -0.065  0.00  0.00    -0.001 A 
ATOM     11  C   LIG    1       -0.588   3.531   0.785  0.00  0.00    +0.011 A 
ATOM     12  C   LIG    1        0.148   2.360   0.629  0.00  0.00    +0.044 A 
BRANCH   9  13
ATOM     13  C   LIG    1       -3.112   2.954  -2.027  0.00  0.00    +0.278 C 
ATOM     14  O   LIG    1       -3.912   3.882  -2.128  0.00  0.00    -0.294 OA
ENDBRANCH   9  13
BRANCH  10  15
ATOM     15  C   LIG    1       -2.448   5.103   0.197  0.00  0.00    +0.145 C 
BRANCH  15  16
ATOM     16  N   LIG    1       -1.850   6.306  -0.416  0.00  0.00    -0.300 N 
ATOM     17  C   LIG    1       -1.056   7.114   0.355  0.00  0.00    +0.199 C 
ATOM     18  O   LIG    1       -0.838   6.915   1.551  0.00  0.00    -0.278 OA
ATOM     19  C   LIG    1       -0.433   8.341  -0.346  0.00  0.00    +0.018 C 
ATOM     20  N   LIG    1       -1.273   8.864  -1.527  0.00  0.00    +0.385 N 
ATOM     21  H   LIG    1       -0.745   9.594  -1.984  0.00  0.00    -0.081 HD
ATOM     22  C   LIG    1       -2.608   9.499  -1.076  0.00  0.00    -0.095 C 
ATOM     23  C   LIG    1       -1.496   7.735  -2.542  0.00  0.00    -0.059 C 
ATOM     24  C   LIG    1       -2.026   6.437  -1.883  0.00  0.00    +0.089 C 
ENDBRANCH  15  16
ENDBRANCH  10  15
ENDBRANCH   2   7
BRANCH   4  25
ATOM     25  C   LIG    1        3.683  -1.602  -0.315  0.00  0.00    +0.128 A 
ATOM     26  N   LIG    1        4.690  -0.777   0.084  0.00  0.00    -0.239 NA
ATOM     27  C   LIG    1        5.928  -1.300   0.245  0.00  0.00    +0.133 A 
ATOM     28  C   LIG    1        6.226  -2.647   0.020  0.00  0.00    +0.091 A 
ATOM     29  C   LIG    1        5.186  -3.508  -0.395  0.00  0.00    +0.050 A 
ATOM     30  C   LIG    1        3.901  -2.961  -0.557  0.00  0.00    +0.068 A 
BRANCH  28  31
ATOM     31  C   LIG    1        7.603  -3.094   0.226  0.00  0.00    +0.103 C 
ATOM     32  N   LIG    1        8.693  -3.447   0.389  0.00  0.00    -0.191 NA
ENDBRANCH  28  31
BRANCH  29  33
ATOM     33  N   LIG    1        5.437  -4.876  -0.642  0.00  0.00    -0.340 N 
ATOM     34  H   LIG    1        6.301  -5.253  -0.279  0.00  0.00    +0.146 HD
BRANCH  33  35
ATOM     35  C   LIG    1        4.364  -5.825  -0.909  0.00  0.00    +0.071 C 
ATOM     36  C   LIG    1        3.765  -5.837  -2.297  0.00  0.00    +0.024 C 
ATOM     37  C   LIG    1        4.670  -6.965  -1.849  0.00  0.00    +0.024 C 
ENDBRANCH  33  35
ENDBRANCH  29  33
ENDBRANCH   4  25
TORSDOF 8
