REMARK  Name = DB18303
REMARK                            x       y       z     vdW  Elec       q    Type
REMARK                         _______ _______ _______ _____ _____    ______ ____
ROOT
ATOM      1  C   LIG    1        1.969   0.094   0.222  0.00  0.00    -0.017 A 
ATOM      2  C   LIG    1        2.643   1.303   0.545  0.00  0.00    +0.013 A 
ATOM      3  C   LIG    1        3.805   1.659  -0.170  0.00  0.00    +0.050 A 
ATOM      4 CL   LIG    1        4.698   3.106   0.160  0.00  0.00    -0.083 Cl
ATOM      5  C   LIG    1        4.288   0.836  -1.186  0.00  0.00    +0.058 A 
ATOM      6  C   LIG    1        3.632  -0.345  -1.503  0.00  0.00    +0.125 A 
ATOM      7  F   LIG    1        4.107  -1.138  -2.490  0.00  0.00    -0.205 F 
ATOM      8  C   LIG    1        2.488  -0.712  -0.805  0.00  0.00    +0.044 A 
ENDROOT
BRANCH   1   9
ATOM      9  C   LIG    1        0.703  -0.366   0.985  0.00  0.00    +0.101 C 
ATOM     10  C   LIG    1        0.277  -1.837   0.770  0.00  0.00    +0.033 C 
BRANCH   9  11
ATOM     11  N   LIG    1       -0.434   0.528   0.743  0.00  0.00    -0.307 N 
ATOM     12  H   LIG    1       -0.546   0.851  -0.207  0.00  0.00    +0.149 HD
ATOM     13  C   LIG    1       -1.367   0.874   1.649  0.00  0.00    +0.239 C 
ATOM     14  O   LIG    1       -1.350   0.490   2.820  0.00  0.00    -0.273 OA
BRANCH  13  15
ATOM     15  C   LIG    1       -2.480   1.802   1.138  0.00  0.00    +0.261 C 
BRANCH  15  16
ATOM     16  O   LIG    1       -3.256   2.298   2.230  0.00  0.00    -0.313 OA
BRANCH  16  17
ATOM     17  C   LIG    1       -2.839   3.557   2.745  0.00  0.00    +0.483 C 
ATOM     18  F   LIG    1       -3.180   4.542   1.914  0.00  0.00    -0.178 F 
ATOM     19  F   LIG    1       -3.414   3.766   3.928  0.00  0.00    -0.178 F 
ENDBRANCH  16  17
ENDBRANCH  15  16
ENDBRANCH  13  15
ENDBRANCH   9  11
ENDBRANCH   1   9
BRANCH   2  20
ATOM     20  C   LIG    1        2.127   2.216   1.666  0.00  0.00    +0.266 C 
BRANCH  20  21
ATOM     21  O   LIG    1        2.223   1.530   2.911  0.00  0.00    -0.485 OA
BRANCH  21  22
ATOM     22  C   LIG    1        1.499   1.979   4.002  0.00  0.00    +0.147 A 
ATOM     23  C   LIG    1        1.393   1.114   5.131  0.00  0.00    +0.113 A 
ATOM     24  N   LIG    1        2.021  -0.096   5.082  0.00  0.00    -0.248 NA
ATOM     25  C   LIG    1        1.921  -0.931   6.140  0.00  0.00    +0.040 A 
ATOM     26  C   LIG    1        2.651  -2.253   5.999  0.00  0.00    +0.065 C 
ATOM     27  C   LIG    1        1.199  -0.623   7.288  0.00  0.00    +0.035 A 
ATOM     28  C   LIG    1        0.537   0.604   7.380  0.00  0.00    +0.030 A 
ATOM     29  C   LIG    1        0.630   1.515   6.277  0.00  0.00    +0.015 A 
ATOM     30  C   LIG    1        0.016   2.795   6.264  0.00  0.00    +0.011 A 
ATOM     31  C   LIG    1        0.141   3.630   5.162  0.00  0.00    +0.004 A 
ATOM     32  C   LIG    1        0.868   3.229   4.048  0.00  0.00    +0.048 A 
BRANCH  28  33
ATOM     33  C   LIG    1       -0.252   0.877   8.622  0.00  0.00    +0.159 A 
ATOM     34  N   LIG    1        0.207   0.776   9.915  0.00  0.00    -0.248 N 
ATOM     35  C   LIG    1        1.515   0.387  10.419  0.00  0.00    +0.174 C 
ATOM     36  N   LIG    1       -0.785   1.041  10.768  0.00  0.00    -0.158 NA
ATOM     37  C   LIG    1       -1.770   1.314   9.941  0.00  0.00    +0.245 A 
ATOM     38  N   LIG    1       -1.515   1.234   8.646  0.00  0.00    -0.215 NA
ENDBRANCH  28  33
ENDBRANCH  21  22
ENDBRANCH  20  21
ENDBRANCH   2  20
TORSDOF 9
