REMARK  Name = DB18294
REMARK                            x       y       z     vdW  Elec       q    Type
REMARK                         _______ _______ _______ _____ _____    ______ ____
ROOT
ATOM      1  C   LIG    1       -0.585  -0.706   1.132  0.00  0.00    +0.173 C 
ATOM      2  C   LIG    1       -0.190   0.172  -0.068  0.00  0.00    +0.331 C 
ATOM      3  O   LIG    1       -0.664   1.476   0.152  0.00  0.00    -0.332 OA
ATOM      4  C   LIG    1       -2.093   1.569   0.101  0.00  0.00    +0.179 C 
ATOM      5  C   LIG    1       -2.692   0.753   1.275  0.00  0.00    +0.176 C 
ATOM      6  C   LIG    1       -2.130  -0.689   1.289  0.00  0.00    +0.172 C 
ENDROOT
BRANCH   1   9
ATOM      7  C   LIG    1        1.069  -4.110   1.883  0.00  0.00    +0.109 C 
ATOM      8  C   LIG    1        0.451  -2.746   2.171  0.00  0.00    +0.210 C 
ATOM      9  N   LIG    1        0.024  -2.045   1.106  0.00  0.00    -0.304 N 
ATOM     10  H   LIG    1        0.153  -2.450   0.190  0.00  0.00    +0.149 HD
ATOM     11  O   LIG    1        0.366  -2.350   3.333  0.00  0.00    -0.276 OA
ENDBRANCH   1   9
BRANCH   5  12
ATOM     12  O   LIG    1       -4.110   0.756   1.237  0.00  0.00    -0.387 OA
ATOM     13  H   LIG    1       -4.398   0.214   0.499  0.00  0.00    +0.210 HD
ENDBRANCH   5  12
BRANCH   6  14
ATOM     14  O   LIG    1       -2.563  -1.401   2.435  0.00  0.00    -0.387 OA
ATOM     15  H   LIG    1       -1.969  -2.142   2.576  0.00  0.00    +0.210 HD
ENDBRANCH   6  14
BRANCH   2  16
ATOM     16  O   LIG    1        1.208   0.172  -0.145  0.00  0.00    -0.462 OA
BRANCH  16  17
ATOM     17  C   LIG    1        1.847   0.704  -1.250  0.00  0.00    +0.124 A 
ATOM     18  C   LIG    1        1.196   1.357  -2.308  0.00  0.00    +0.048 A 
ATOM     19  C   LIG    1        1.928   1.863  -3.378  0.00  0.00    +0.036 A 
ATOM     20  C   LIG    1        3.323   1.731  -3.415  0.00  0.00    +0.122 A 
ATOM     21  C   LIG    1        3.968   1.081  -2.355  0.00  0.00    +0.036 A 
ATOM     22  C   LIG    1        3.235   0.575  -1.285  0.00  0.00    +0.048 A 
BRANCH  20  23
ATOM     23  N   LIG    1        4.103   2.272  -4.555  0.00  0.00    +0.006 N 
ATOM     24  O   LIG    1        3.501   2.837  -5.465  0.00  0.00    -0.130 OA
BRANCH  23  25
ATOM     25  O   LIG    1        5.323   2.137  -4.551  0.00  0.00    -0.396 OA
ATOM     26  H   LIG    1        5.743   1.699  -3.837  0.00  0.00    +0.329 HD
ENDBRANCH  23  25
ENDBRANCH  20  23
ENDBRANCH  16  17
ENDBRANCH   2  16
BRANCH   4  27
ATOM     27  C   LIG    1       -2.478   3.063   0.150  0.00  0.00    +0.190 C 
BRANCH  27  28
ATOM     28  O   LIG    1       -2.020   3.737  -1.006  0.00  0.00    -0.392 OA
ATOM     29  H   LIG    1       -2.261   4.664  -0.935  0.00  0.00    +0.210 HD
ENDBRANCH  27  28
ENDBRANCH   4  27
TORSDOF 9
