REMARK  Name = DB18283
REMARK                            x       y       z     vdW  Elec       q    Type
REMARK                         _______ _______ _______ _____ _____    ______ ____
ROOT
ATOM      1  C   LIG    1       -3.796   2.177  -2.632  0.00  0.00    +0.159 C 
ATOM      2  C   LIG    1       -4.126   0.678  -2.904  0.00  0.00    +0.238 C 
ATOM      3  O   LIG    1       -3.354  -0.259  -2.677  0.00  0.00    -0.273 OA
ATOM      4  N   LIG    1       -5.382   0.529  -3.447  0.00  0.00    -0.263 N 
ATOM      5  C   LIG    1       -6.186  -0.718  -3.180  0.00  0.00    +0.167 C 
ATOM      6  C   LIG    1       -6.073  -1.365  -1.752  0.00  0.00    +0.237 C 
ATOM      7  N   LIG    1       -6.134  -2.726  -1.621  0.00  0.00    -0.291 N 
ATOM      8  C   LIG    1       -6.197  -3.503  -0.345  0.00  0.00    +0.166 C 
ATOM      9  C   LIG    1       -5.009  -4.475  -0.107  0.00  0.00    +0.235 C 
ATOM     10  N   LIG    1       -3.822  -4.066   0.380  0.00  0.00    -0.301 N 
ATOM     11  H   LIG    1       -3.109  -4.776   0.473  0.00  0.00    +0.150 HD
ATOM     12  C   LIG    1       -3.385  -2.744   0.849  0.00  0.00    +0.185 C 
ATOM     13  C   LIG    1       -1.932  -2.606   0.369  0.00  0.00    +0.328 C 
ATOM     14  O   LIG    1       -1.219  -1.757   1.145  0.00  0.00    -0.458 OA
ATOM     15  C   LIG    1        0.175  -1.507   0.951  0.00  0.00    +0.203 C 
ATOM     16  C   LIG    1        0.416  -0.369  -0.093  0.00  0.00    +0.200 C 
ATOM     17  C   LIG    1       -0.353   0.950   0.148  0.00  0.00    +0.238 C 
ATOM     18  N   LIG    1       -0.034   1.970  -0.667  0.00  0.00    -0.302 N 
ATOM     19  H   LIG    1        0.666   1.832  -1.380  0.00  0.00    +0.150 HD
ATOM     20  C   LIG    1       -0.650   3.301  -0.629  0.00  0.00    +0.159 C 
ATOM     21  C   LIG    1       -2.017   3.383  -1.363  0.00  0.00    +0.234 C 
ATOM     22  O   LIG    1       -2.603   4.466  -1.393  0.00  0.00    -0.274 OA
ATOM     23  O   LIG    1       -1.198   1.032   1.040  0.00  0.00    -0.274 OA
ATOM     24  C   LIG    1        0.793  -1.246   2.340  0.00  0.00    +0.054 C 
ATOM     25  O   LIG    1       -1.468  -3.187  -0.619  0.00  0.00    -0.249 OA
ATOM     26  O   LIG    1       -5.186  -5.658  -0.394  0.00  0.00    -0.274 OA
ATOM     27  C   LIG    1       -6.104  -3.585  -2.818  0.00  0.00    +0.133 C 
ATOM     28  O   LIG    1       -5.988  -0.585  -0.803  0.00  0.00    -0.274 OA
ATOM     29  C   LIG    1       -5.550   1.242  -4.759  0.00  0.00    +0.205 C 
ATOM     30  C   LIG    1       -5.202   2.744  -4.633  0.00  0.00    +0.054 C 
ATOM     31  N   LIG    1       -2.509   2.267  -1.936  0.00  0.00    -0.302 N 
ATOM     32  H   LIG    1       -2.053   1.390  -1.731  0.00  0.00    +0.150 HD
ATOM     33  C   LIG    1       -3.835   2.930  -3.977  0.00  0.00    +0.036 C 
ENDROOT
BRANCH  16  34
ATOM     34  N   LIG    1        1.837  -0.063  -0.267  0.00  0.00    -0.299 N 
ATOM     35  H   LIG    1        2.144   0.813   0.130  0.00  0.00    +0.150 HD
ATOM     36  C   LIG    1        2.733  -0.858  -0.868  0.00  0.00    +0.234 C 
ATOM     37  O   LIG    1        2.470  -1.942  -1.388  0.00  0.00    -0.274 OA
BRANCH  36  38
ATOM     38  C   LIG    1        4.173  -0.318  -0.902  0.00  0.00    +0.159 C 
BRANCH  38  39
ATOM     39  N   LIG    1        5.169  -1.365  -0.669  0.00  0.00    -0.304 N 
ATOM     40  H   LIG    1        5.716  -1.637  -1.474  0.00  0.00    +0.149 HD
ATOM     41  C   LIG    1        5.361  -2.002   0.500  0.00  0.00    +0.216 C 
ATOM     42  O   LIG    1        4.731  -1.727   1.524  0.00  0.00    -0.276 OA
BRANCH  41  43
ATOM     43  C   LIG    1        6.425  -3.116   0.518  0.00  0.00    +0.069 C 
ATOM     44  C   LIG    1        7.529  -2.816   1.552  0.00  0.00    +0.017 C 
ATOM     45  C   LIG    1        5.776  -4.490   0.784  0.00  0.00    +0.017 C 
ENDBRANCH  41  43
ENDBRANCH  38  39
BRANCH  38  46
ATOM     46  C   LIG    1        4.463   0.386  -2.243  0.00  0.00    +0.041 C 
BRANCH  46  47
ATOM     47  C   LIG    1        5.740   1.249  -2.208  0.00  0.00    +0.098 C 
BRANCH  47  48
ATOM     48  C   LIG    1        6.007   1.994  -3.521  0.00  0.00    +0.211 C 
ATOM     49  O   LIG    1        5.096   2.246  -4.308  0.00  0.00    -0.276 OA
ATOM     50  N   LIG    1        7.265   2.376  -3.747  0.00  0.00    -0.329 N 
ATOM     51  H   LIG    1        7.497   2.881  -4.591  0.00  0.00    +0.145 HD
ATOM     52  H   LIG    1        7.993   2.166  -3.081  0.00  0.00    +0.145 HD
ENDBRANCH  47  48
ENDBRANCH  46  47
ENDBRANCH  38  46
ENDBRANCH  36  38
ENDBRANCH  16  34
BRANCH  12  53
ATOM     53  C   LIG    1       -3.607  -2.613   2.402  0.00  0.00    +0.017 C 
ATOM     54  C   LIG    1       -2.690  -3.501   3.276  0.00  0.00    +0.010 C 
BRANCH  53  55
ATOM     55  C   LIG    1       -3.621  -1.143   2.887  0.00  0.00    +0.002 C 
ATOM     56  C   LIG    1       -4.446  -0.922   4.161  0.00  0.00    +0.004 C 
ENDBRANCH  53  55
ENDBRANCH  12  53
BRANCH   5  57
ATOM     57  C   LIG    1       -7.720  -0.537  -3.547  0.00  0.00    +0.015 C 
ATOM     58  C   LIG    1       -7.998  -1.089  -4.965  0.00  0.00    +0.010 C 
BRANCH  57  59
ATOM     59  C   LIG    1       -8.806  -1.076  -2.572  0.00  0.00    +0.002 C 
ATOM     60  C   LIG    1      -10.245  -0.707  -2.963  0.00  0.00    +0.004 C 
ENDBRANCH  57  59
ENDBRANCH   5  57
BRANCH  29  61
ATOM     61  O   LIG    1       -4.837   0.614  -5.814  0.00  0.00    -0.374 OA
ATOM     62  H   LIG    1       -5.064   1.049  -6.639  0.00  0.00    +0.212 HD
ENDBRANCH  29  61
BRANCH  20  63
ATOM     63  C   LIG    1        0.352   4.354  -1.176  0.00  0.00    +0.034 C 
BRANCH  63  64
ATOM     64  C   LIG    1        1.643   4.547  -0.337  0.00  0.00    -0.015 C 
ATOM     65  C   LIG    1        2.668   3.405  -0.522  0.00  0.00    +0.007 C 
ATOM     66  C   LIG    1        2.281   5.930  -0.602  0.00  0.00    +0.007 C 
ENDBRANCH  63  64
ENDBRANCH  20  63
BRANCH   8  67
ATOM     67  C   LIG    1       -6.736  -2.791   0.933  0.00  0.00    +0.067 C 
BRANCH  67  68
ATOM     68  C   LIG    1       -8.167  -2.266   0.883  0.00  0.00    -0.045 A 
ATOM     69  C   LIG    1       -9.237  -3.120   0.533  0.00  0.00    +0.007 A 
ATOM     70  C   LIG    1      -10.557  -2.631   0.499  0.00  0.00    +0.045 A 
ATOM     71  C   LIG    1      -10.819  -1.285   0.822  0.00  0.00    +0.117 A 
ATOM     72  C   LIG    1       -9.760  -0.432   1.187  0.00  0.00    +0.045 A 
ATOM     73  C   LIG    1       -8.440  -0.922   1.221  0.00  0.00    +0.007 A 
BRANCH  71  74
ATOM     74  O   LIG    1      -12.096  -0.808   0.783  0.00  0.00    -0.507 OA
ATOM     75  H   LIG    1      -12.739  -1.471   0.522  0.00  0.00    +0.292 HD
ENDBRANCH  71  74
ENDBRANCH  67  68
ENDBRANCH   8  67
TORSDOF 17
