REMARK  Name = DB18103
REMARK                            x       y       z     vdW  Elec       q    Type
REMARK                         _______ _______ _______ _____ _____    ______ ____
ROOT
ATOM      1  C   LIG    1        3.895  -5.301  -2.941  0.00  0.00    +0.121 A 
ATOM      2  C   LIG    1        3.055  -4.971  -4.014  0.00  0.00    +0.046 A 
ATOM      3  C   LIG    1        3.027  -5.768  -5.156  0.00  0.00    +0.014 A 
ATOM      4  C   LIG    1        3.833  -6.910  -5.254  0.00  0.00    +0.007 A 
ATOM      5  C   LIG    1        4.670  -7.232  -4.176  0.00  0.00    +0.014 A 
ATOM      6  C   LIG    1        4.699  -6.435  -3.035  0.00  0.00    +0.046 A 
ENDROOT
BRANCH   4   7
ATOM      7  C   LIG    1        3.813  -7.791  -6.476  0.00  0.00    +0.109 A 
ATOM      8  S   LIG    1        2.953  -7.327  -7.941  0.00  0.00    -0.067 S 
ATOM      9  C   LIG    1        3.477  -8.834  -8.678  0.00  0.00    +0.040 A 
ATOM     10  C   LIG    1        3.225  -9.344  -9.959  0.00  0.00    +0.017 A 
ATOM     11  C   LIG    1        3.773 -10.586 -10.284  0.00  0.00    +0.001 A 
ATOM     12  C   LIG    1        4.547 -11.299  -9.369  0.00  0.00    +0.002 A 
ATOM     13  C   LIG    1        4.805 -10.800  -8.092  0.00  0.00    +0.029 A 
ATOM     14  C   LIG    1        4.264  -9.553  -7.741  0.00  0.00    +0.079 A 
ATOM     15  N   LIG    1        4.429  -8.944  -6.537  0.00  0.00    -0.239 NA
ENDBRANCH   4   7
BRANCH   1  16
ATOM     16  O   LIG    1        3.988  -4.572  -1.770  0.00  0.00    -0.490 OA
BRANCH  16  17
ATOM     17  C   LIG    1        3.201  -3.394  -1.617  0.00  0.00    +0.257 C 
BRANCH  17  18
ATOM     18  C   LIG    1        3.490  -2.771  -0.240  0.00  0.00    +0.201 C 
BRANCH  18  19
ATOM     19  O   LIG    1        2.969  -1.451  -0.108  0.00  0.00    -0.374 OA
BRANCH  19  20
ATOM     20  C   LIG    1        1.550  -1.356  -0.047  0.00  0.00    +0.188 C 
BRANCH  20  21
ATOM     21  C   LIG    1        1.159   0.111   0.169  0.00  0.00    +0.188 C 
BRANCH  21  22
ATOM     22  O   LIG    1       -0.258   0.212   0.191  0.00  0.00    -0.375 OA
BRANCH  22  23
ATOM     23  C   LIG    1       -0.733   1.538   0.379  0.00  0.00    +0.188 C 
BRANCH  23  24
ATOM     24  C   LIG    1       -2.266   1.526   0.359  0.00  0.00    +0.188 C 
BRANCH  24  25
ATOM     25  O   LIG    1       -2.744   2.853   0.529  0.00  0.00    -0.375 OA
BRANCH  25  26
ATOM     26  C   LIG    1       -4.161   2.959   0.488  0.00  0.00    +0.187 C 
BRANCH  26  27
ATOM     27  C   LIG    1       -4.551   4.431   0.678  0.00  0.00    +0.184 C 
BRANCH  27  28
ATOM     28  O   LIG    1       -5.953   4.589   0.616  0.00  0.00    -0.393 OA
ATOM     29  H   LIG    1       -6.160   5.522   0.707  0.00  0.00    +0.209 HD
ENDBRANCH  27  28
ENDBRANCH  26  27
ENDBRANCH  25  26
ENDBRANCH  24  25
ENDBRANCH  23  24
ENDBRANCH  22  23
ENDBRANCH  21  22
ENDBRANCH  20  21
ENDBRANCH  19  20
ENDBRANCH  18  19
ENDBRANCH  17  18
ENDBRANCH  16  17
ENDBRANCH   1  16
TORSDOF 14
