REMARK  Name = DB18578
REMARK                            x       y       z     vdW  Elec       q    Type
REMARK                         _______ _______ _______ _____ _____    ______ ____
ROOT
ATOM      1  C   LIG    1       -0.290   1.526   0.146  0.00  0.00    +0.089 C 
ATOM      2  N   LIG    1        0.164   0.129   0.163  0.00  0.00    -0.279 NA
ATOM      3  C   LIG    1       -0.102  -0.442   1.505  0.00  0.00    +0.135 C 
ATOM      4  C   LIG    1       -0.174  -1.942   1.619  0.00  0.00    +0.004 A 
ATOM      5  C   LIG    1       -0.929  -2.883   0.915  0.00  0.00    +0.009 A 
ATOM      6  C   LIG    1       -0.843  -4.234   1.262  0.00  0.00    +0.020 A 
ATOM      7  C   LIG    1       -0.009  -4.640   2.309  0.00  0.00    +0.043 A 
ATOM      8 CL   LIG    1        0.092  -6.310   2.730  0.00  0.00    -0.083 Cl
ATOM      9  C   LIG    1        0.747  -3.697   3.011  0.00  0.00    +0.043 A 
ATOM     10  C   LIG    1        0.650  -2.354   2.650  0.00  0.00    +0.040 A 
ATOM     11  N   LIG    1        1.335  -1.264   3.157  0.00  0.00    -0.283 N 
ATOM     12  H   LIG    1        2.045  -1.329   3.872  0.00  0.00    +0.155 HD
ATOM     13  C   LIG    1        1.036  -0.114   2.523  0.00  0.00    +0.243 C 
ATOM     14  O   LIG    1        1.554   0.986   2.720  0.00  0.00    -0.273 OA
ATOM     15  C   LIG    1       -1.424   0.279   1.906  0.00  0.00    +0.082 C 
ATOM     16  C   LIG    1       -1.315   1.679   1.277  0.00  0.00    +0.135 C 
ATOM     17  N   LIG    1       -2.472   2.255   0.625  0.00  0.00    -0.262 N 
ATOM     18  N   LIG    1       -3.658   2.633   1.127  0.00  0.00    -0.170 NA
ATOM     19  C   LIG    1       -4.339   3.091   0.028  0.00  0.00    +0.097 A 
ATOM     20  C   LIG    1       -3.556   2.977  -1.165  0.00  0.00    +0.023 A 
ATOM     21  C   LIG    1       -4.082   3.387  -2.393  0.00  0.00    +0.012 A 
ATOM     22  C   LIG    1       -5.370   3.911  -2.421  0.00  0.00    +0.016 A 
ATOM     23  C   LIG    1       -6.152   4.037  -1.265  0.00  0.00    +0.064 A 
ATOM     24  C   LIG    1       -5.649   3.618  -0.009  0.00  0.00    -0.009 A 
ATOM     25  C   LIG    1       -6.495   3.724   1.262  0.00  0.00    +0.047 C 
ATOM     26  C   LIG    1       -2.331   2.414  -0.727  0.00  0.00    +0.049 A 
ATOM     27  C   LIG    1       -0.979   1.924  -1.173  0.00  0.00    +0.076 C 
ENDROOT
BRANCH  15  28
ATOM     28  C   LIG    1       -1.931   0.186   3.360  0.00  0.00    -0.003 A 
ATOM     29  C   LIG    1       -2.838  -0.820   3.735  0.00  0.00    +0.145 A 
ATOM     30  F   LIG    1       -3.281  -1.718   2.823  0.00  0.00    -0.204 F 
ATOM     31  C   LIG    1       -3.290  -0.909   5.055  0.00  0.00    +0.076 A 
ATOM     32 CL   LIG    1       -4.404  -2.146   5.519  0.00  0.00    -0.081 Cl
ATOM     33  C   LIG    1       -2.840   0.002   6.010  0.00  0.00    +0.023 A 
ATOM     34  C   LIG    1       -1.938   1.000   5.651  0.00  0.00    +0.002 A 
ATOM     35  C   LIG    1       -1.487   1.091   4.335  0.00  0.00    +0.007 A 
ENDBRANCH  15  28
BRANCH  23  36
ATOM     36  C   LIG    1       -7.517   4.635  -1.411  0.00  0.00    +0.337 C 
ATOM     37  O   LIG    1       -8.396   3.930  -1.958  0.00  0.00    -0.245 OA
BRANCH  36  38
ATOM     38  O   LIG    1       -7.682   5.801  -0.985  0.00  0.00    -0.477 OA
ATOM     39  H   LIG    1       -8.521   6.212  -1.057  0.00  0.00    +0.295 HD
ENDBRANCH  36  38
ENDBRANCH  23  36
BRANCH   2  40
ATOM     40  C   LIG    1        1.457  -0.057  -0.518  0.00  0.00    +0.089 C 
BRANCH  40  41
ATOM     41  C   LIG    1        1.727  -1.513  -0.943  0.00  0.00    +0.003 C 
ATOM     42  C   LIG    1        3.097  -1.922  -1.411  0.00  0.00    +0.005 C 
ATOM     43  C   LIG    1        2.554  -2.431  -0.083  0.00  0.00    +0.005 C 
ENDBRANCH  40  41
ENDBRANCH   2  40
TORSDOF 5
