REMARK  Name = DB18122
REMARK                            x       y       z     vdW  Elec       q    Type
REMARK                         _______ _______ _______ _____ _____    ______ ____
ROOT
ATOM      1  C   LIG    1       -0.273  -0.826   1.516  0.00  0.00    +0.059 C 
ATOM      2  C   LIG    1       -0.037  -0.064   0.202  0.00  0.00    +0.219 C 
ENDROOT
BRANCH   2   3
ATOM      3  C   LIG    1       -0.568   1.380   0.245  0.00  0.00    +0.085 A 
ATOM      4  C   LIG    1       -1.624   1.860  -0.474  0.00  0.00    +0.088 A 
ATOM      5  C   LIG    1       -1.924   3.282  -0.329  0.00  0.00    +0.035 A 
ATOM      6  C   LIG    1       -1.177   4.055   0.492  0.00  0.00    +0.072 A 
ATOM      7  C   LIG    1       -0.056   3.531   1.262  0.00  0.00    +0.249 A 
ATOM      8  O   LIG    1        0.635   4.215   2.013  0.00  0.00    -0.268 OA
ATOM      9  N   LIG    1        0.169   2.199   1.078  0.00  0.00    -0.321 N 
ATOM     10  H   LIG    1        0.947   1.817   1.596  0.00  0.00    +0.169 HD
BRANCH   4  11
ATOM     11  N   LIG    1       -2.405   1.079  -1.343  0.00  0.00    -0.238 N 
ATOM     12  N   LIG    1       -3.064  -0.004  -0.894  0.00  0.00    -0.175 NA
ATOM     13  C   LIG    1       -3.678  -0.489  -1.950  0.00  0.00    +0.135 A 
ATOM     14  C   LIG    1       -3.440   0.268  -3.101  0.00  0.00    +0.041 A 
ATOM     15  C   LIG    1       -2.612   1.292  -2.684  0.00  0.00    +0.114 A 
ENDBRANCH   4  11
ENDBRANCH   2   3
BRANCH   2  16
ATOM     16  O   LIG    1        1.372  -0.109  -0.060  0.00  0.00    -0.480 OA
BRANCH  16  17
ATOM     17  C   LIG    1        1.882   0.345  -1.267  0.00  0.00    +0.161 A 
ATOM     18  C   LIG    1        3.252   0.625  -1.354  0.00  0.00    +0.159 A 
ATOM     19  N   LIG    1        3.856   1.080  -2.479  0.00  0.00    -0.229 NA
ATOM     20  C   LIG    1        3.102   1.276  -3.595  0.00  0.00    +0.074 A 
ATOM     21  C   LIG    1        3.727   1.756  -4.772  0.00  0.00    +0.031 A 
ATOM     22  C   LIG    1        2.975   1.963  -5.927  0.00  0.00    +0.040 A 
ATOM     23  C   LIG    1        1.607   1.703  -5.941  0.00  0.00    +0.124 A 
ATOM     24  F   LIG    1        0.897   1.912  -7.072  0.00  0.00    -0.205 F 
ATOM     25  C   LIG    1        0.965   1.228  -4.800  0.00  0.00    +0.048 A 
ATOM     26  C   LIG    1        1.702   1.009  -3.610  0.00  0.00    +0.007 A 
ATOM     27  C   LIG    1        1.105   0.530  -2.420  0.00  0.00    +0.059 A 
BRANCH  18  28
ATOM     28  N   LIG    1        4.083   0.450  -0.246  0.00  0.00    -0.340 N 
ATOM     29  H   LIG    1        5.067   0.658  -0.328  0.00  0.00    +0.144 HD
ATOM     30  H   LIG    1        3.690   0.104   0.618  0.00  0.00    +0.144 HD
ENDBRANCH  18  28
ENDBRANCH  16  17
ENDBRANCH   2  16
TORSDOF 5
