REMARK  Name = DB18155
REMARK                            x       y       z     vdW  Elec       q    Type
REMARK                         _______ _______ _______ _____ _____    ______ ____
ROOT
ATOM      1  N   LIG    1        1.523   0.079   0.030  0.00  0.00    -0.339 N 
ATOM      2  C   LIG    1        2.235   0.188   1.238  0.00  0.00    +0.054 A 
ATOM      3  C   LIG    1        1.844   0.138   2.606  0.00  0.00    -0.014 A 
ATOM      4  C   LIG    1        0.381  -0.029   3.074  0.00  0.00    +0.044 C 
ATOM      5  C   LIG    1        0.077   0.587   4.463  0.00  0.00    +0.062 C 
ATOM      6  C   LIG    1        1.144   0.129   5.426  0.00  0.00    +0.071 A 
ATOM      7  N   LIG    1        0.959  -0.162   6.695  0.00  0.00    -0.176 NA
ATOM      8  N   LIG    1        2.160  -0.571   7.117  0.00  0.00    -0.274 N 
ATOM      9  C   LIG    1        2.317  -1.027   8.487  0.00  0.00    +0.172 C 
ATOM     10  C   LIG    1        3.096  -0.566   6.118  0.00  0.00    +0.116 A 
ATOM     11  C   LIG    1        2.461  -0.061   4.991  0.00  0.00    +0.024 A 
ATOM     12  C   LIG    1        2.888   0.182   3.571  0.00  0.00    +0.003 A 
ATOM     13  C   LIG    1        4.216   0.426   3.186  0.00  0.00    +0.050 A 
ATOM     14  C   LIG    1        5.456   0.666   4.010  0.00  0.00    +0.245 C 
ATOM     15  O   LIG    1        5.591   0.735   5.228  0.00  0.00    -0.270 OA
ATOM     16  N   LIG    1        6.447   0.825   3.118  0.00  0.00    -0.307 N 
ATOM     17  H   LIG    1        7.403   1.007   3.385  0.00  0.00    +0.149 HD
ATOM     18  C   LIG    1        6.047   0.749   1.728  0.00  0.00    +0.141 C 
ATOM     19  C   LIG    1        4.574   0.513   1.857  0.00  0.00    -0.008 A 
ATOM     20  C   LIG    1        3.599   0.369   0.866  0.00  0.00    +0.013 A 
ATOM     21  C   LIG    1        3.694   0.374  -0.534  0.00  0.00    +0.010 A 
ATOM     22  C   LIG    1        4.781   0.519  -1.413  0.00  0.00    +0.034 A 
ATOM     23  C   LIG    1        4.560   0.474  -2.795  0.00  0.00    +0.034 A 
ATOM     24  C   LIG    1        3.267   0.272  -3.277  0.00  0.00    +0.025 A 
ATOM     25  C   LIG    1        2.167   0.123  -2.433  0.00  0.00    +0.028 A 
ATOM     26  C   LIG    1        2.396   0.182  -1.050  0.00  0.00    +0.050 A 
ENDROOT
BRANCH  23  27
ATOM     27  N   LIG    1        5.579   0.606  -3.759  0.00  0.00    -0.284 N 
ATOM     28  H   LIG    1        5.253   0.443  -4.701  0.00  0.00    +0.155 HD
BRANCH  27  29
ATOM     29  C   LIG    1        6.951   0.905  -3.713  0.00  0.00    +0.219 A 
ATOM     30  N   LIG    1        7.549   1.245  -2.538  0.00  0.00    -0.223 NA
ATOM     31  C   LIG    1        8.877   1.532  -2.581  0.00  0.00    +0.116 A 
ATOM     32  C   LIG    1        9.612   1.488  -3.766  0.00  0.00    +0.039 A 
ATOM     33  C   LIG    1        8.916   1.132  -4.923  0.00  0.00    +0.116 A 
ATOM     34  N   LIG    1        7.588   0.841  -4.912  0.00  0.00    -0.223 NA
ENDBRANCH  27  29
ENDBRANCH  23  27
BRANCH   1  35
ATOM     35  C   LIG    1        0.076  -0.101  -0.141  0.00  0.00    +0.125 C 
BRANCH  35  37
ATOM     36  C   LIG    1       -2.214   1.003  -0.066  0.00  0.00    +0.009 C 
ATOM     37  C   LIG    1       -0.698   1.247  -0.162  0.00  0.00    +0.003 C 
ATOM     38  C   LIG    1       -0.365   2.131  -1.381  0.00  0.00    +0.009 C 
ENDBRANCH  35  37
ENDBRANCH   1  35
TORSDOF 4
