REMARK  Name = DB18063
REMARK                            x       y       z     vdW  Elec       q    Type
REMARK                         _______ _______ _______ _____ _____    ______ ____
ROOT
ATOM      1  C   LIG    1        2.126   0.896  -1.168  0.00  0.00    +0.129 A 
ATOM      2  N   LIG    1        1.457   1.804  -1.940  0.00  0.00    -0.262 N 
ATOM      3  H   LIG    1        0.451   1.863  -2.006  0.00  0.00    +0.190 HD
ATOM      4  N   LIG    1        2.256   2.639  -2.600  0.00  0.00    -0.156 NA
ATOM      5  C   LIG    1        3.485   2.304  -2.264  0.00  0.00    +0.159 A 
ATOM      6  C   LIG    1        3.473   1.168  -1.407  0.00  0.00    +0.117 A 
ENDROOT
BRANCH   6   7
ATOM      7  C   LIG    1        4.592   0.502  -0.781  0.00  0.00    +0.248 C 
ATOM      8  O   LIG    1        4.541   0.085   0.375  0.00  0.00    -0.270 OA
ATOM      9  N   LIG    1        5.670   0.351  -1.555  0.00  0.00    -0.325 N 
ATOM     10  H   LIG    1        6.490  -0.116  -1.196  0.00  0.00    +0.145 HD
ATOM     11  H   LIG    1        5.664   0.685  -2.508  0.00  0.00    +0.145 HD
ENDBRANCH   6   7
BRANCH   1  12
ATOM     12  N   LIG    1        1.484  -0.043  -0.394  0.00  0.00    -0.325 N 
ATOM     13  H   LIG    1        2.024  -0.799   0.003  0.00  0.00    +0.148 HD
BRANCH  12  14
ATOM     14  C   LIG    1        0.046  -0.282  -0.297  0.00  0.00    +0.138 C 
BRANCH  14  21
ATOM     15  C   LIG    1       -0.476   3.712   2.789  0.00  0.00    +0.047 C 
ATOM     16  C   LIG    1       -1.024   2.840   1.668  0.00  0.00    -0.008 A 
ATOM     17  C   LIG    1       -2.265   3.119   1.075  0.00  0.00    +0.123 A 
ATOM     18  C   LIG    1       -2.751   2.298   0.045  0.00  0.00    -0.008 A 
ATOM     19  C   LIG    1       -4.095   2.577  -0.614  0.00  0.00    +0.047 C 
ATOM     20  C   LIG    1       -1.990   1.208  -0.386  0.00  0.00    +0.012 A 
ATOM     21  C   LIG    1       -0.751   0.927   0.192  0.00  0.00    -0.030 A 
ATOM     22  C   LIG    1       -0.279   1.743   1.226  0.00  0.00    +0.012 A 
BRANCH  17  23
ATOM     23  O   LIG    1       -3.007   4.192   1.505  0.00  0.00    -0.506 OA
ATOM     24  H   LIG    1       -3.836   4.285   1.031  0.00  0.00    +0.292 HD
ENDBRANCH  17  23
ENDBRANCH  14  21
ENDBRANCH  12  14
ENDBRANCH   1  12
BRANCH   5  25
ATOM     25  N   LIG    1        4.601   2.985  -2.717  0.00  0.00    -0.297 N 
ATOM     26  H   LIG    1        5.502   2.611  -2.456  0.00  0.00    +0.154 HD
BRANCH  25  27
ATOM     27  C   LIG    1        4.757   4.135  -3.517  0.00  0.00    +0.033 A 
ATOM     28  C   LIG    1        6.061   4.452  -3.900  0.00  0.00    +0.025 A 
ATOM     29  C   LIG    1        6.317   5.571  -4.687  0.00  0.00    +0.025 A 
ATOM     30  C   LIG    1        5.274   6.403  -5.112  0.00  0.00    +0.030 A 
ATOM     31  C   LIG    1        3.966   6.084  -4.719  0.00  0.00    +0.025 A 
ATOM     32  C   LIG    1        3.708   4.967  -3.929  0.00  0.00    +0.025 A 
BRANCH  30  33
ATOM     33  N   LIG    1        5.556   7.518  -5.899  0.00  0.00    -0.326 N 
ATOM     34  C   LIG    1        4.499   8.207  -6.662  0.00  0.00    +0.133 C 
ATOM     35  C   LIG    1        5.059   9.155  -7.744  0.00  0.00    +0.178 C 
ATOM     36  O   LIG    1        5.949  10.091  -7.152  0.00  0.00    -0.377 OA
ATOM     37  C   LIG    1        7.045   9.450  -6.518  0.00  0.00    +0.178 C 
ATOM     38  C   LIG    1        6.538   8.503  -5.410  0.00  0.00    +0.133 C 
ENDBRANCH  30  33
ENDBRANCH  25  27
ENDBRANCH   5  25
TORSDOF 8
