REMARK  Name = DB18479
REMARK                            x       y       z     vdW  Elec       q    Type
REMARK                         _______ _______ _______ _____ _____    ______ ____
ROOT
ATOM      1  C   LIG    1       -1.315  -1.543  -0.207  0.00  0.00    +0.130 A 
ATOM      2  N   LIG    1       -1.817  -0.660   0.709  0.00  0.00    -0.200 NA
ATOM      3  C   LIG    1       -1.130   0.487   0.927  0.00  0.00    +0.217 A 
ATOM      4  N   LIG    1        0.014   0.848   0.301  0.00  0.00    -0.180 NA
ATOM      5  C   LIG    1        0.502  -0.022  -0.628  0.00  0.00    +0.222 A 
ATOM      6  C   LIG    1       -0.142  -1.228  -0.916  0.00  0.00    +0.111 A 
ENDROOT
BRANCH   1  15
ATOM      7  C   LIG    1       -4.394  -7.373   0.608  0.00  0.00    +0.040 C 
ATOM      8  N   LIG    1       -3.274  -6.885   1.553  0.00  0.00    +0.388 N 
ATOM      9  H   LIG    1       -2.763  -7.661   1.952  0.00  0.00    -0.085 HD
ATOM     10  H   LIG    1       -3.680  -6.368   2.320  0.00  0.00    -0.085 HD
ATOM     11  C   LIG    1       -2.355  -5.978   0.723  0.00  0.00    -0.075 C 
ATOM     12  C   LIG    1       -3.229  -5.466  -0.444  0.00  0.00    -0.043 C 
ATOM     13  C   LIG    1       -2.447  -4.948  -1.657  0.00  0.00    +0.024 C 
ATOM     14  C   LIG    1       -1.473  -3.821  -1.250  0.00  0.00    +0.107 C 
ATOM     15  N   LIG    1       -2.057  -2.706  -0.458  0.00  0.00    -0.315 N 
ATOM     16  C   LIG    1       -3.240  -3.050   0.379  0.00  0.00    +0.107 C 
ATOM     17  C   LIG    1       -4.100  -4.240  -0.104  0.00  0.00    +0.024 C 
ATOM     18  C   LIG    1       -4.098  -6.697  -0.747  0.00  0.00    +0.000 C 
BRANCH   7  19
ATOM     19  C   LIG    1       -4.409  -8.922   0.513  0.00  0.00    +0.293 C 
ATOM     20  O   LIG    1       -5.182  -9.474  -0.273  0.00  0.00    -0.253 OA
BRANCH  19  21
ATOM     21  O   LIG    1       -3.535  -9.575   1.324  0.00  0.00    -0.466 OA
BRANCH  21  23
ATOM     22  C   LIG    1       -2.396 -11.448   2.327  0.00  0.00    +0.048 C 
ATOM     23  C   LIG    1       -3.455 -10.995   1.317  0.00  0.00    +0.228 C 
ENDBRANCH  21  23
ENDBRANCH  19  21
ENDBRANCH   7  19
ENDBRANCH   1  15
BRANCH   3  24
ATOM     24  N   LIG    1       -1.640   1.367   1.875  0.00  0.00    -0.327 N 
ATOM     25  H   LIG    1       -1.142   2.222   2.072  0.00  0.00    +0.145 HD
ATOM     26  H   LIG    1       -2.494   1.132   2.359  0.00  0.00    +0.145 HD
ENDBRANCH   3  24
BRANCH   5  27
ATOM     27  O   LIG    1        1.672   0.279  -1.306  0.00  0.00    -0.459 OA
BRANCH  27  28
ATOM     28  C   LIG    1        2.335   1.540  -1.120  0.00  0.00    +0.309 C 
BRANCH  28  29
ATOM     29  C   LIG    1        1.546   2.667  -1.814  0.00  0.00    +0.009 A 
ATOM     30  C   LIG    1        1.164   3.852  -1.143  0.00  0.00    -0.010 A 
ATOM     31  C   LIG    1        0.409   4.809  -1.834  0.00  0.00    +0.029 A 
ATOM     32  C   LIG    1        0.045   4.616  -3.165  0.00  0.00    +0.042 A 
ATOM     33 CL   LIG    1       -0.881   5.816  -3.991  0.00  0.00    -0.084 Cl
ATOM     34  C   LIG    1        0.426   3.452  -3.825  0.00  0.00    +0.020 A 
ATOM     35  C   LIG    1        1.167   2.485  -3.152  0.00  0.00    +0.009 A 
BRANCH  30  36
ATOM     36  C   LIG    1        1.494   4.118   0.282  0.00  0.00    -0.017 A 
ATOM     37  C   LIG    1        0.472   4.164   1.237  0.00  0.00    +0.008 A 
ATOM     38  C   LIG    1        0.767   4.412   2.575  0.00  0.00    +0.001 A 
ATOM     39  C   LIG    1        2.088   4.625   2.960  0.00  0.00    +0.000 A 
ATOM     40  C   LIG    1        3.114   4.597   2.018  0.00  0.00    +0.001 A 
ATOM     41  C   LIG    1        2.815   4.348   0.681  0.00  0.00    +0.008 A 
ENDBRANCH  30  36
ENDBRANCH  28  29
BRANCH  28  42
ATOM     42  C   LIG    1        3.783   1.390  -1.643  0.00  0.00    +0.431 C 
ATOM     43  F   LIG    1        4.468   2.529  -1.537  0.00  0.00    -0.167 F 
ATOM     44  F   LIG    1        3.828   1.022  -2.924  0.00  0.00    -0.167 F 
ATOM     45  F   LIG    1        4.446   0.469  -0.943  0.00  0.00    -0.167 F 
ENDBRANCH  28  42
ENDBRANCH  27  28
ENDBRANCH   5  27
TORSDOF 10
