REMARK  Name = DB18016
REMARK                            x       y       z     vdW  Elec       q    Type
REMARK                         _______ _______ _______ _____ _____    ______ ____
ROOT
ATOM      1  C   LIG    1       -0.079  -2.454  -0.404  0.00  0.00    +0.173 C 
ATOM      2  N   LIG    1       -0.612  -1.101  -0.303  0.00  0.00    -0.266 N 
ATOM      3  C   LIG    1        0.076   0.084  -0.147  0.00  0.00    +0.080 A 
ATOM      4  C   LIG    1       -0.916   1.069  -0.084  0.00  0.00    +0.028 A 
ATOM      5  C   LIG    1       -2.116   0.350  -0.200  0.00  0.00    +0.143 A 
ATOM      6  N   LIG    1       -1.940  -0.943  -0.314  0.00  0.00    -0.179 NA
ENDROOT
BRANCH   4   7
ATOM      7  C   LIG    1       -0.766   2.548   0.070  0.00  0.00    -0.014 A 
ATOM      8  C   LIG    1        0.326   3.088   0.759  0.00  0.00    +0.019 A 
ATOM      9  C   LIG    1        0.497   4.474   0.870  0.00  0.00    +0.009 A 
ATOM     10  C   LIG    1        1.650   5.101   1.557  0.00  0.00    +0.052 A 
ATOM     11  N   LIG    1        1.734   6.380   1.698  0.00  0.00    -0.177 NA
ATOM     12  N   LIG    1        0.750   7.191   1.162  0.00  0.00    -0.243 N 
ATOM     13  H   LIG    1        0.899   8.178   1.318  0.00  0.00    +0.192 HD
ATOM     14  C   LIG    1       -0.364   6.841   0.460  0.00  0.00    +0.272 A 
ATOM     15  O   LIG    1       -1.155   7.676   0.022  0.00  0.00    -0.266 OA
ATOM     16  C   LIG    1       -0.479   5.331   0.317  0.00  0.00    +0.050 A 
ATOM     17  C   LIG    1       -1.577   4.795  -0.362  0.00  0.00    +0.014 A 
ATOM     18  C   LIG    1       -1.714   3.413  -0.487  0.00  0.00    +0.009 A 
BRANCH  10  19
ATOM     19  C   LIG    1        2.772   4.169   2.081  0.00  0.00    -0.028 C 
BRANCH  19  20
ATOM     20  N   LIG    1        3.955   4.909   2.736  0.00  0.00    +0.382 N 
ATOM     21  H   LIG    1        4.375   5.544   2.072  0.00  0.00    -0.090 HD
ATOM     22  H   LIG    1        3.628   5.448   3.525  0.00  0.00    -0.090 HD
ATOM     23  H   LIG    1        4.654   4.252   3.053  0.00  0.00    -0.090 HD
ENDBRANCH  19  20
ENDBRANCH  10  19
ENDBRANCH   4   7
BRANCH   3  24
ATOM     24  C   LIG    1        1.574   0.185  -0.084  0.00  0.00    +0.058 A 
ATOM     25  C   LIG    1        2.346   0.847  -1.065  0.00  0.00    +0.105 A 
ATOM     26  C   LIG    1        3.745   0.938  -0.926  0.00  0.00    +0.140 A 
ATOM     27  C   LIG    1        4.352   0.363   0.202  0.00  0.00    +0.070 A 
ATOM     28  C   LIG    1        3.595  -0.287   1.171  0.00  0.00    +0.080 A 
ATOM     29 CL   LIG    1        4.384  -0.972   2.547  0.00  0.00    -0.080 Cl
ATOM     30  C   LIG    1        2.212  -0.376   1.032  0.00  0.00    +0.152 A 
ATOM     31  F   LIG    1        1.486  -0.994   1.996  0.00  0.00    -0.203 F 
BRANCH  25  32
ATOM     32  C   LIG    1        1.705   1.439  -2.243  0.00  0.00    +0.104 C 
ATOM     33  N   LIG    1        1.198   1.908  -3.171  0.00  0.00    -0.191 NA
ENDBRANCH  25  32
BRANCH  26  34
ATOM     34  O   LIG    1        4.469   1.600  -1.907  0.00  0.00    -0.487 OA
BRANCH  34  35
ATOM     35  C   LIG    1        5.889   1.650  -1.821  0.00  0.00    +0.174 C 
ATOM     36  C   LIG    1        6.676   0.446  -2.281  0.00  0.00    +0.048 C 
ATOM     37  C   LIG    1        6.643   1.700  -3.126  0.00  0.00    +0.048 C 
ENDBRANCH  34  35
ENDBRANCH  26  34
ENDBRANCH   3  24
TORSDOF 7
