REMARK  Name = DB18307
REMARK                            x       y       z     vdW  Elec       q    Type
REMARK                         _______ _______ _______ _____ _____    ______ ____
ROOT
ATOM      1  C   LIG    1        1.998  -1.132   0.182  0.00  0.00    +0.027 A 
ATOM      2  C   LIG    1        1.517  -2.444   0.078  0.00  0.00    +0.025 A 
ATOM      3  C   LIG    1        2.407  -3.514   0.044  0.00  0.00    +0.030 A 
ATOM      4  C   LIG    1        3.783  -3.282   0.112  0.00  0.00    +0.109 A 
ATOM      5  C   LIG    1        4.265  -1.976   0.225  0.00  0.00    +0.030 A 
ATOM      6  C   LIG    1        3.373  -0.907   0.256  0.00  0.00    +0.025 A 
ENDROOT
BRANCH   4   7
ATOM      7  S   LIG    1        4.925  -4.675   0.076  0.00  0.00    +0.074 S 
ATOM      8  O   LIG    1        4.559  -5.457   1.261  0.00  0.00    -0.150 OA
ATOM      9  O   LIG    1        6.274  -4.095   0.051  0.00  0.00    -0.150 OA
BRANCH   7  10
ATOM     10  N   LIG    1        4.506  -5.370  -1.270  0.00  0.00    -0.194 N 
ATOM     11  H   LIG    1        4.065  -6.248  -1.213  0.00  0.00    +0.176 HD
BRANCH  10  12
ATOM     12  C   LIG    1        4.708  -4.851  -2.493  0.00  0.00    +0.179 A 
ATOM     13  S   LIG    1        4.172  -5.835  -3.837  0.00  0.00    -0.051 S 
ATOM     14  C   LIG    1        4.733  -4.578  -4.929  0.00  0.00    +0.041 A 
ATOM     15  C   LIG    1        4.702  -4.519  -6.329  0.00  0.00    +0.017 A 
ATOM     16  C   LIG    1        5.224  -3.380  -6.944  0.00  0.00    +0.001 A 
ATOM     17  C   LIG    1        5.760  -2.333  -6.196  0.00  0.00    +0.002 A 
ATOM     18  C   LIG    1        5.797  -2.381  -4.802  0.00  0.00    +0.029 A 
ATOM     19  C   LIG    1        5.278  -3.516  -4.160  0.00  0.00    +0.080 A 
ATOM     20  N   LIG    1        5.247  -3.703  -2.816  0.00  0.00    -0.224 NA
ENDBRANCH  10  12
ENDBRANCH   7  10
ENDBRANCH   4   7
BRANCH   1  21
ATOM     21  N   LIG    1        1.153  -0.011   0.217  0.00  0.00    -0.340 N 
ATOM     22  H   LIG    1        1.568   0.907   0.149  0.00  0.00    +0.146 HD
BRANCH  21  23
ATOM     23  C   LIG    1       -0.290  -0.123   0.042  0.00  0.00    +0.140 C 
BRANCH  23  26
ATOM     24  C   LIG    1       -1.558   3.406  -0.808  0.00  0.00    +0.162 A 
ATOM     25  C   LIG    1       -0.948   2.148  -0.927  0.00  0.00    +0.163 A 
ATOM     26  C   LIG    1       -0.940   1.251   0.154  0.00  0.00    +0.015 A 
ATOM     27  C   LIG    1       -1.554   1.615   1.354  0.00  0.00    +0.009 A 
ATOM     28  C   LIG    1       -2.162   2.861   1.483  0.00  0.00    +0.004 A 
ATOM     29  C   LIG    1       -2.165   3.751   0.412  0.00  0.00    +0.049 A 
BRANCH  24  31
ATOM     30  C   LIG    1       -2.134   5.525  -1.839  0.00  0.00    +0.277 C 
ATOM     31  O   LIG    1       -1.526   4.240  -1.913  0.00  0.00    -0.491 OA
ENDBRANCH  24  31
BRANCH  25  32
ATOM     32  O   LIG    1       -0.351   1.803  -2.116  0.00  0.00    -0.503 OA
ATOM     33  H   LIG    1       -0.421   2.498  -2.775  0.00  0.00    +0.292 HD
ENDBRANCH  25  32
ENDBRANCH  23  26
ENDBRANCH  21  23
ENDBRANCH   1  21
TORSDOF 8
