REMARK  Name = DB18011
REMARK                            x       y       z     vdW  Elec       q    Type
REMARK                         _______ _______ _______ _____ _____    ______ ____
ROOT
ATOM      1  C   LIG    1        2.285  -1.367  -1.605  0.00  0.00    +0.093 A 
ATOM      2  N   LIG    1        1.078  -1.321  -2.225  0.00  0.00    -0.247 NA
ATOM      3  C   LIG    1        0.924  -1.973  -3.407  0.00  0.00    +0.080 A 
ATOM      4  C   LIG    1       -0.460  -1.868  -4.029  0.00  0.00    +0.069 C 
ATOM      5  C   LIG    1        1.951  -2.701  -4.026  0.00  0.00    +0.142 A 
ATOM      6  C   LIG    1        3.193  -2.732  -3.370  0.00  0.00    +0.049 A 
ATOM      7  C   LIG    1        3.366  -2.064  -2.157  0.00  0.00    +0.033 A 
ENDROOT
BRANCH   1  13
ATOM      8  C   LIG    1        1.369  -0.175   0.548  0.00  0.00    +0.105 A 
ATOM      9  N   LIG    1        2.049   0.473   1.555  0.00  0.00    -0.248 N 
ATOM     10  C   LIG    1        1.516   1.202   2.696  0.00  0.00    +0.174 C 
ATOM     11  N   LIG    1        3.365   0.458   1.344  0.00  0.00    -0.065 NA
ATOM     12  N   LIG    1        3.562  -0.251   0.178  0.00  0.00    -0.128 NA
ATOM     13  C   LIG    1        2.386  -0.618  -0.310  0.00  0.00    +0.137 A 
BRANCH   8  14
ATOM     14  C   LIG    1       -0.142  -0.292   0.518  0.00  0.00    +0.291 C 
BRANCH  14  15
ATOM     15  O   LIG    1       -0.698   0.967   0.162  0.00  0.00    -0.444 OA
BRANCH  15  17
ATOM     16  N   LIG    1       -2.375   2.459  -0.283  0.00  0.00    -0.270 N 
ATOM     17  C   LIG    1       -2.042   1.141   0.073  0.00  0.00    +0.403 C 
ATOM     18  O   LIG    1       -2.855   0.239   0.293  0.00  0.00    -0.226 OA
ATOM     19  C   LIG    1       -1.378   3.517  -0.488  0.00  0.00    +0.135 C 
BRANCH  16  20
ATOM     20  C   LIG    1       -3.782   2.881  -0.346  0.00  0.00    +0.110 C 
BRANCH  20  22
ATOM     21  C   LIG    1       -4.251   2.809   2.200  0.00  0.00    +0.005 C 
ATOM     22  C   LIG    1       -4.273   3.637   0.906  0.00  0.00    +0.016 C 
ENDBRANCH  20  22
ENDBRANCH  16  20
ENDBRANCH  15  17
ENDBRANCH  14  15
ENDBRANCH   8  14
ENDBRANCH   1  13
BRANCH   5  23
ATOM     23  O   LIG    1        1.654  -3.316  -5.232  0.00  0.00    -0.487 OA
BRANCH  23  24
ATOM     24  C   LIG    1        2.528  -4.231  -5.902  0.00  0.00    +0.174 C 
ATOM     25  C   LIG    1        2.889  -5.515  -5.098  0.00  0.00    +0.059 C 
ATOM     26  C   LIG    1        3.636  -6.557  -5.987  0.00  0.00    +0.101 C 
ATOM     27  C   LIG    1        4.931  -5.859  -6.511  0.00  0.00    +0.015 C 
ATOM     28  C   LIG    1        4.623  -4.593  -7.350  0.00  0.00    +0.004 C 
ATOM     29  C   LIG    1        3.772  -3.569  -6.558  0.00  0.00    +0.044 C 
BRANCH  26  30
ATOM     30  C   LIG    1        2.750  -7.169  -7.125  0.00  0.00    +0.308 C 
ATOM     31  O   LIG    1        1.529  -7.341  -6.898  0.00  0.00    -0.251 OA
BRANCH  30  32
ATOM     32  O   LIG    1        3.321  -7.631  -8.141  0.00  0.00    -0.480 OA
ATOM     33  H   LIG    1        2.813  -8.002  -8.835  0.00  0.00    +0.295 HD
ENDBRANCH  30  32
ENDBRANCH  26  30
ENDBRANCH  23  24
ENDBRANCH   5  23
TORSDOF 10
