REMARK  Name = DB18545
REMARK                            x       y       z     vdW  Elec       q    Type
REMARK                         _______ _______ _______ _____ _____    ______ ____
ROOT
ATOM      1  C   LIG    1        1.554  -0.068   0.024  0.00  0.00    +0.050 A 
ATOM      2  N   LIG    1        2.056   1.091   0.579  0.00  0.00    -0.217 N 
ATOM      3  N   LIG    1        1.347   2.096   1.141  0.00  0.00    -0.169 NA
ATOM      4  C   LIG    1        2.228   2.994   1.540  0.00  0.00    +0.072 A 
ATOM      5  C   LIG    1        1.710   4.248   2.209  0.00  0.00    +0.068 C 
ATOM      6  C   LIG    1        3.555   2.624   1.252  0.00  0.00    +0.069 A 
ATOM      7  C   LIG    1        3.433   1.361   0.614  0.00  0.00    +0.165 A 
ATOM      8  N   LIG    1        4.322   0.490   0.118  0.00  0.00    -0.232 NA
ATOM      9  C   LIG    1        3.839  -0.657  -0.431  0.00  0.00    +0.042 A 
ATOM     10  C   LIG    1        4.891  -1.604  -0.978  0.00  0.00    +0.066 C 
ATOM     11  C   LIG    1        2.481  -0.974  -0.500  0.00  0.00    +0.046 A 
ENDROOT
BRANCH   6  12
ATOM     12  C   LIG    1        4.781   3.358   1.548  0.00  0.00    +0.104 A 
ATOM     13  C   LIG    1        5.838   3.585   0.662  0.00  0.00    +0.107 A 
ATOM     14 CL   LIG    1        6.013   3.124  -0.987  0.00  0.00    -0.073 Cl
ATOM     15  S   LIG    1        7.085   4.495   1.457  0.00  0.00    -0.040 S 
ATOM     16  C   LIG    1        6.098   4.509   2.893  0.00  0.00    +0.163 A 
ATOM     17  N   LIG    1        4.954   3.881   2.750  0.00  0.00    -0.223 NA
BRANCH  16  18
ATOM     18  N   LIG    1        6.514   5.130   4.049  0.00  0.00    -0.305 N 
ATOM     19  C   LIG    1        5.578   5.364   5.165  0.00  0.00    +0.135 C 
ATOM     20  C   LIG    1        6.272   5.464   6.539  0.00  0.00    +0.179 C 
ATOM     21  O   LIG    1        7.293   6.448   6.493  0.00  0.00    -0.377 OA
ATOM     22  C   LIG    1        8.294   6.119   5.544  0.00  0.00    +0.179 C 
ATOM     23  C   LIG    1        7.682   6.028   4.130  0.00  0.00    +0.135 C 
ENDBRANCH  16  18
ENDBRANCH   6  12
BRANCH   1  24
ATOM     24  C   LIG    1        0.037  -0.339   0.014  0.00  0.00    +0.037 C 
BRANCH  24  26
ATOM     25  C   LIG    1       -0.174  -0.457   2.609  0.00  0.00    +0.004 C 
ATOM     26  C   LIG    1       -0.414  -1.147   1.257  0.00  0.00    +0.006 C 
ENDBRANCH  24  26
BRANCH  24  27
ATOM     27  C   LIG    1       -0.470  -1.010  -1.290  0.00  0.00    +0.006 C 
ATOM     28  C   LIG    1       -0.204  -0.192  -2.566  0.00  0.00    +0.004 C 
ENDBRANCH  24  27
ENDBRANCH   1  24
TORSDOF 5
