REMARK  Name = DB18112
REMARK                            x       y       z     vdW  Elec       q    Type
REMARK                         _______ _______ _______ _____ _____    ______ ____
ROOT
ATOM      1  N   LIG    1        3.090  -1.887   0.082  0.00  0.00    -0.280 NA
ATOM      2  C   LIG    1        3.525  -3.095   0.052  0.00  0.00    +0.109 C 
ATOM      3  C   LIG    1        5.013  -3.237   0.068  0.00  0.00    +0.212 C 
ATOM      4  O   LIG    1        5.761  -2.251   0.100  0.00  0.00    -0.285 OA
ATOM      5  C   LIG    1        5.592  -4.639   0.043  0.00  0.00    +0.034 A 
ATOM      6  C   LIG    1        6.987  -4.806   0.058  0.00  0.00    +0.012 A 
ATOM      7  C   LIG    1        7.562  -6.073   0.039  0.00  0.00    +0.001 A 
ATOM      8  C   LIG    1        6.751  -7.201   0.005  0.00  0.00    +0.001 A 
ATOM      9  C   LIG    1        5.367  -7.061  -0.011  0.00  0.00    +0.012 A 
ATOM     10  C   LIG    1        4.762  -5.787   0.008  0.00  0.00    +0.027 A 
ATOM     11  C   LIG    1        3.278  -5.563  -0.006  0.00  0.00    +0.127 C 
ATOM     12  C   LIG    1        2.745  -4.321   0.015  0.00  0.00    +0.077 C 
ENDROOT
BRANCH  11  13
ATOM     13  O   LIG    1        2.501  -6.595  -0.036  0.00  0.00    -0.506 OA
ATOM     14  H   LIG    1        1.571  -6.482  -0.045  0.00  0.00    +0.292 HD
ENDBRANCH  11  13
BRANCH   1  15
ATOM     15  C   LIG    1        1.665  -1.620   0.039  0.00  0.00    +0.142 C 
BRANCH  15  16
ATOM     16  C   LIG    1        1.435  -0.104  -0.127  0.00  0.00    +0.026 C 
BRANCH  16  18
ATOM     17  C   LIG    1       -0.874  -0.228  -1.257  0.00  0.00    +0.007 C 
ATOM     18  C   LIG    1       -0.050   0.328  -0.079  0.00  0.00    -0.015 C 
ATOM     19  C   LIG    1       -0.178   1.861  -0.000  0.00  0.00    +0.007 C 
ENDBRANCH  16  18
ENDBRANCH  15  16
ENDBRANCH   1  15
TORSDOF 4
