REMARK  Name = DB18245
REMARK                            x       y       z     vdW  Elec       q    Type
REMARK                         _______ _______ _______ _____ _____    ______ ____
ROOT
ATOM      1  C   LIG    1        2.154   0.482   0.948  0.00  0.00    +0.222 A 
ATOM      2  N   LIG    1        3.510   0.503   0.945  0.00  0.00    -0.178 NA
ATOM      3  C   LIG    1        4.081   1.254   1.924  0.00  0.00    +0.243 A 
ATOM      4  N   LIG    1        3.400   1.954   2.870  0.00  0.00    -0.178 NA
ATOM      5  C   LIG    1        2.042   1.884   2.788  0.00  0.00    +0.224 A 
ATOM      6  N   LIG    1        1.382   1.146   1.851  0.00  0.00    -0.181 NA
ENDROOT
BRANCH   3   7
ATOM      7  N   LIG    1        5.493   1.319   1.949  0.00  0.00    -0.260 N 
ATOM      8  C   LIG    1        6.369   0.252   1.793  0.00  0.00    +0.077 A 
ATOM      9  C   LIG    1        6.194  -1.123   1.580  0.00  0.00    +0.028 A 
ATOM     10  C   LIG    1        7.350  -1.900   1.477  0.00  0.00    +0.002 A 
ATOM     11  C   LIG    1        8.625  -1.345   1.584  0.00  0.00    +0.002 A 
ATOM     12  C   LIG    1        8.802   0.021   1.802  0.00  0.00    +0.030 A 
ATOM     13  C   LIG    1        7.659   0.828   1.907  0.00  0.00    +0.090 A 
ATOM     14  N   LIG    1        7.580   2.174   2.118  0.00  0.00    -0.226 NA
ATOM     15  C   LIG    1        6.297   2.442   2.126  0.00  0.00    +0.184 A 
BRANCH  15  16
ATOM     16  C   LIG    1        5.785   3.864   2.308  0.00  0.00    +0.407 C 
ATOM     17  F   LIG    1        4.837   4.184   1.427  0.00  0.00    -0.201 F 
ATOM     18  F   LIG    1        5.330   4.082   3.541  0.00  0.00    -0.201 F 
ENDBRANCH  15  16
ENDBRANCH   3   7
BRANCH   5  19
ATOM     19  N   LIG    1        1.282   2.548   3.757  0.00  0.00    -0.295 N 
ATOM     20  C   LIG    1        1.873   3.607   4.603  0.00  0.00    +0.136 C 
ATOM     21  C   LIG    1        1.045   3.970   5.852  0.00  0.00    +0.179 C 
ATOM     22  O   LIG    1       -0.298   4.244   5.489  0.00  0.00    -0.377 OA
ATOM     23  C   LIG    1       -0.914   3.107   4.910  0.00  0.00    +0.179 C 
ATOM     24  C   LIG    1       -0.181   2.712   3.613  0.00  0.00    +0.136 C 
ENDBRANCH   5  19
BRANCH   1  25
ATOM     25  N   LIG    1        1.565  -0.279  -0.076  0.00  0.00    -0.308 N 
ATOM     26  H   LIG    1        2.192  -0.747  -0.714  0.00  0.00    +0.149 HD
BRANCH  25  27
ATOM     27  C   LIG    1        0.127  -0.389  -0.373  0.00  0.00    +0.033 C 
ATOM     28  C   LIG    1       -0.064  -1.272  -1.633  0.00  0.00    +0.031 C 
ATOM     29  C   LIG    1       -0.595  -1.130   0.784  0.00  0.00    +0.031 C 
BRANCH  27  30
ATOM     30  C   LIG    1       -0.579   0.999  -0.578  0.00  0.00    +0.060 C 
BRANCH  30  32
ATOM     31  C   LIG    1       -0.632   3.337  -1.646  0.00  0.00    -0.041 A 
ATOM     32  C   LIG    1       -0.015   2.064  -1.548  0.00  0.00    -0.042 A 
ATOM     33  C   LIG    1        1.112   1.807  -2.348  0.00  0.00    +0.004 A 
ATOM     34  C   LIG    1        1.616   2.765  -3.223  0.00  0.00    +0.000 A 
ATOM     35  C   LIG    1        1.005   4.007  -3.318  0.00  0.00    +0.000 A 
ATOM     36  C   LIG    1       -0.107   4.289  -2.533  0.00  0.00    +0.004 A 
BRANCH  31  42
ATOM     37  C   LIG    1       -5.048   6.190   0.977  0.00  0.00    -0.096 C 
ATOM     38  N   LIG    1       -3.846   5.711   0.141  0.00  0.00    +0.378 N 
ATOM     39  H   LIG    1       -3.521   6.478  -0.433  0.00  0.00    -0.082 HD
ATOM     40  C   LIG    1       -2.689   5.285   1.072  0.00  0.00    -0.079 C 
ATOM     41  C   LIG    1       -1.485   4.870   0.209  0.00  0.00    -0.011 C 
ATOM     42  C   LIG    1       -1.849   3.754  -0.798  0.00  0.00    +0.016 C 
ATOM     43  C   LIG    1       -3.075   4.139  -1.661  0.00  0.00    -0.011 C 
ATOM     44  C   LIG    1       -4.277   4.559  -0.795  0.00  0.00    -0.079 C 
ENDBRANCH  31  42
ENDBRANCH  30  32
ENDBRANCH  27  30
ENDBRANCH  25  27
ENDBRANCH   1  25
TORSDOF 8
