REMARK  Name = DB18541
REMARK                            x       y       z     vdW  Elec       q    Type
REMARK                         _______ _______ _______ _____ _____    ______ ____
ROOT
ATOM      1  C   LIG    1        1.156   0.285   0.852  0.00  0.00    +0.184 C 
ATOM      2  C   LIG    1        1.724   0.947  -0.433  0.00  0.00    +0.180 C 
ATOM      3  C   LIG    1        3.264   0.769  -0.537  0.00  0.00    +0.214 C 
ATOM      4  C   LIG    1        3.906   1.171   0.800  0.00  0.00    +0.339 C 
ATOM      5  O   LIG    1        3.376   0.345   1.805  0.00  0.00    -0.331 OA
ATOM      6  C   LIG    1        2.012   0.657   2.090  0.00  0.00    +0.179 C 
ENDROOT
BRANCH   2   7
ATOM      7  O   LIG    1        1.067   0.453  -1.587  0.00  0.00    -0.386 OA
ATOM      8  H   LIG    1        1.222  -0.493  -1.645  0.00  0.00    +0.210 HD
ENDBRANCH   2   7
BRANCH   3   9
ATOM      9  O   LIG    1        3.804   1.512  -1.617  0.00  0.00    -0.383 OA
ATOM     10  H   LIG    1        3.359   2.362  -1.655  0.00  0.00    +0.210 HD
ENDBRANCH   3   9
BRANCH   1  11
ATOM     11  O   LIG    1       -0.255   0.442   1.067  0.00  0.00    -0.340 OA
BRANCH  11  14
ATOM     12  C   LIG    1       -3.038   2.922   1.448  0.00  0.00    +0.186 C 
ATOM     13  C   LIG    1       -2.337   1.550   1.247  0.00  0.00    +0.202 C 
ATOM     14  C   LIG    1       -0.813   1.726   1.137  0.00  0.00    +0.282 C 
ATOM     15  O   LIG    1       -0.355   2.396   2.280  0.00  0.00    -0.341 OA
ATOM     16  C   LIG    1       -0.810   3.746   2.373  0.00  0.00    +0.178 C 
ATOM     17  C   LIG    1       -2.348   3.752   2.556  0.00  0.00    +0.177 C 
BRANCH  13  18
ATOM     18  O   LIG    1       -2.838   0.876   0.107  0.00  0.00    -0.384 OA
ATOM     19  H   LIG    1       -3.782   1.047   0.043  0.00  0.00    +0.210 HD
ENDBRANCH  13  18
BRANCH  17  20
ATOM     20  O   LIG    1       -2.839   5.079   2.579  0.00  0.00    -0.386 OA
ATOM     21  H   LIG    1       -3.779   5.053   2.776  0.00  0.00    +0.210 HD
ENDBRANCH  17  20
BRANCH  12  22
ATOM     22  O   LIG    1       -4.405   2.695   1.821  0.00  0.00    -0.340 OA
BRANCH  22  23
ATOM     23  C   LIG    1       -5.430   3.002   0.912  0.00  0.00    +0.282 C 
ATOM     24  C   LIG    1       -5.602   4.530   0.770  0.00  0.00    +0.201 C 
ATOM     25  C   LIG    1       -6.715   4.838  -0.262  0.00  0.00    +0.179 C 
ATOM     26  C   LIG    1       -6.523   4.034  -1.568  0.00  0.00    +0.177 C 
ATOM     27  C   LIG    1       -6.280   2.535  -1.258  0.00  0.00    +0.178 C 
ATOM     28  O   LIG    1       -5.185   2.423  -0.343  0.00  0.00    -0.341 OA
BRANCH  24  29
ATOM     29  O   LIG    1       -5.883   5.127   2.024  0.00  0.00    -0.384 OA
ATOM     30  H   LIG    1       -6.826   5.058   2.190  0.00  0.00    +0.210 HD
ENDBRANCH  24  29
BRANCH  25  31
ATOM     31  O   LIG    1       -6.814   6.230  -0.516  0.00  0.00    -0.386 OA
ATOM     32  H   LIG    1       -5.988   6.530  -0.903  0.00  0.00    +0.210 HD
ENDBRANCH  25  31
BRANCH  26  33
ATOM     33  O   LIG    1       -7.619   4.213  -2.451  0.00  0.00    -0.386 OA
ATOM     34  H   LIG    1       -8.429   3.996  -1.985  0.00  0.00    +0.210 HD
ENDBRANCH  26  33
BRANCH  27  35
ATOM     35  C   LIG    1       -5.930   1.710  -2.515  0.00  0.00    +0.190 C 
BRANCH  35  36
ATOM     36  O   LIG    1       -5.831   0.336  -2.201  0.00  0.00    -0.392 OA
ATOM     37  H   LIG    1       -5.582  -0.143  -2.995  0.00  0.00    +0.210 HD
ENDBRANCH  35  36
ENDBRANCH  27  35
ENDBRANCH  22  23
ENDBRANCH  12  22
BRANCH  16  38
ATOM     38  C   LIG    1       -0.018   4.450   3.499  0.00  0.00    +0.190 C 
BRANCH  38  39
ATOM     39  O   LIG    1       -0.275   3.890   4.771  0.00  0.00    -0.392 OA
ATOM     40  H   LIG    1        0.267   4.345   5.420  0.00  0.00    +0.210 HD
ENDBRANCH  38  39
ENDBRANCH  16  38
ENDBRANCH  11  14
ENDBRANCH   1  11
BRANCH   4  41
ATOM     41  O   LIG    1        5.289   0.982   0.711  0.00  0.00    -0.460 OA
BRANCH  41  42
ATOM     42  C   LIG    1        6.125   1.550   1.661  0.00  0.00    +0.131 A 
ATOM     43  C   LIG    1        7.505   1.614   1.377  0.00  0.00    +0.043 A 
ATOM     44  C   LIG    1        8.126   1.074   0.077  0.00  0.00    +0.056 C 
ATOM     45  C   LIG    1        7.707  -0.333  -0.370  0.00  0.00    -0.019 C 
ATOM     46  C   LIG    1        8.466  -1.144  -1.144  0.00  0.00    -0.076 C 
ATOM     47  C   LIG    1        7.983  -2.521  -1.567  0.00  0.00    +0.039 C 
ATOM     48  C   LIG    1        9.887  -0.762  -1.572  0.00  0.00    +0.030 C 
ATOM     49  C   LIG    1       10.227   0.713  -1.250  0.00  0.00    +0.012 C 
ATOM     50  C   LIG    1        9.680   1.110   0.140  0.00  0.00    +0.044 C 
ATOM     51  C   LIG    1       10.192   2.454   0.746  0.00  0.00    +0.109 C 
ATOM     52  C   LIG    1       11.723   2.419   0.935  0.00  0.00    +0.055 C 
ATOM     53  C   LIG    1        9.720   3.702  -0.042  0.00  0.00    +0.055 C 
ATOM     54  O   LIG    1        9.691   2.501   2.092  0.00  0.00    -0.486 OA
ATOM     55  C   LIG    1        8.333   2.313   2.283  0.00  0.00    +0.129 A 
ATOM     56  C   LIG    1        7.832   2.852   3.467  0.00  0.00    +0.049 A 
ATOM     57  C   LIG    1        6.479   2.733   3.768  0.00  0.00    -0.040 A 
ATOM     58  C   LIG    1        5.639   2.083   2.869  0.00  0.00    +0.050 A 
BRANCH  57  59
ATOM     59  C   LIG    1        5.899   3.332   5.042  0.00  0.00    +0.035 C 
BRANCH  59  60
ATOM     60  C   LIG    1        5.123   4.638   4.773  0.00  0.00    +0.005 C 
BRANCH  60  61
ATOM     61  C   LIG    1        4.389   5.219   5.998  0.00  0.00    +0.000 C 
BRANCH  61  62
ATOM     62  C   LIG    1        3.207   4.360   6.489  0.00  0.00    -0.003 C 
ATOM     63  C   LIG    1        2.360   5.059   7.560  0.00  0.00    +0.004 C 
ENDBRANCH  61  62
ENDBRANCH  60  61
ENDBRANCH  59  60
ENDBRANCH  57  59
ENDBRANCH  41  42
ENDBRANCH   4  41
BRANCH   6  64
ATOM     64  C   LIG    1        1.588  -0.091   3.364  0.00  0.00    +0.197 C 
BRANCH  64  65
ATOM     65  O   LIG    1        2.456   0.298   4.424  0.00  0.00    -0.346 OA
BRANCH  65  66
ATOM     66  C   LIG    1        1.973   0.049   5.707  0.00  0.00    +0.282 C 
ATOM     67  C   LIG    1        3.157   0.198   6.673  0.00  0.00    +0.201 C 
ATOM     68  C   LIG    1        2.672   0.081   8.138  0.00  0.00    +0.179 C 
ATOM     69  C   LIG    1        1.442   0.977   8.411  0.00  0.00    +0.177 C 
ATOM     70  C   LIG    1        0.376   0.795   7.298  0.00  0.00    +0.178 C 
ATOM     71  O   LIG    1        0.995   1.005   6.026  0.00  0.00    -0.341 OA
BRANCH  67  72
ATOM     72  O   LIG    1        4.175  -0.747   6.391  0.00  0.00    -0.384 OA
ATOM     73  H   LIG    1        4.768  -0.784   7.145  0.00  0.00    +0.210 HD
ENDBRANCH  67  72
BRANCH  68  74
ATOM     74  O   LIG    1        3.725   0.359   9.046  0.00  0.00    -0.386 OA
ATOM     75  H   LIG    1        3.340   0.529   9.909  0.00  0.00    +0.210 HD
ENDBRANCH  68  74
BRANCH  69  76
ATOM     76  O   LIG    1        0.914   0.714   9.700  0.00  0.00    -0.386 OA
ATOM     77  H   LIG    1        0.208   1.342   9.873  0.00  0.00    +0.210 HD
ENDBRANCH  69  76
BRANCH  70  78
ATOM     78  C   LIG    1       -0.806   1.787   7.383  0.00  0.00    +0.190 C 
BRANCH  78  79
ATOM     79  O   LIG    1       -1.668   1.502   8.467  0.00  0.00    -0.392 OA
ATOM     80  H   LIG    1       -2.407   2.115   8.438  0.00  0.00    +0.210 HD
ENDBRANCH  78  79
ENDBRANCH  70  78
ENDBRANCH  65  66
ENDBRANCH  64  65
ENDBRANCH   6  64
TORSDOF 29
