REMARK  Name = DB18220
REMARK                            x       y       z     vdW  Elec       q    Type
REMARK                         _______ _______ _______ _____ _____    ______ ____
ROOT
ATOM      1  C   LIG    1        1.460  -0.128   0.177  0.00  0.00    -0.019 A 
ATOM      2  C   LIG    1        2.184   0.676   1.067  0.00  0.00    -0.043 A 
ATOM      3  C   LIG    1        1.507   1.480   2.171  0.00  0.00    +0.044 C 
ATOM      4  C   LIG    1        3.574   0.713   0.975  0.00  0.00    +0.008 A 
ATOM      5  C   LIG    1        4.296  -0.024   0.021  0.00  0.00    -0.038 A 
ATOM      6  C   LIG    1        5.844   0.078   0.005  0.00  0.00    -0.010 C 
ATOM      7  C   LIG    1        6.419  -0.521  -1.306  0.00  0.00    +0.012 C 
ATOM      8  C   LIG    1        5.776  -1.859  -1.677  0.00  0.00    +0.012 C 
ATOM      9  C   LIG    1        4.253  -1.739  -1.948  0.00  0.00    -0.010 C 
ATOM     10  C   LIG    1        4.033  -1.053  -3.319  0.00  0.00    +0.016 C 
ATOM     11  C   LIG    1        3.700  -3.189  -1.927  0.00  0.00    +0.016 C 
ATOM     12  C   LIG    1        6.395  -0.721   1.213  0.00  0.00    +0.016 C 
ATOM     13  C   LIG    1        6.295   1.562   0.032  0.00  0.00    +0.016 C 
ATOM     14  C   LIG    1        3.569  -0.874  -0.857  0.00  0.00    -0.037 A 
ATOM     15  C   LIG    1        2.167  -0.886  -0.757  0.00  0.00    +0.013 A 
ENDROOT
BRANCH   1  17
ATOM     16  C   LIG    1       -0.602  -1.600   0.426  0.00  0.00    +0.044 C 
ATOM     17  C   LIG    1       -0.021  -0.212   0.180  0.00  0.00    -0.042 C 
ATOM     18  C   LIG    1       -0.772   0.901   0.016  0.00  0.00    +0.019 C 
BRANCH  18  19
ATOM     19  C   LIG    1       -2.217   1.047  -0.043  0.00  0.00    +0.013 A 
ATOM     20  S   LIG    1       -2.993   2.470   0.578  0.00  0.00    -0.082 S 
ATOM     21  C   LIG    1       -4.587   1.894   0.115  0.00  0.00    +0.097 A 
ATOM     22  C   LIG    1       -4.462   0.649  -0.514  0.00  0.00    +0.023 A 
ATOM     23  C   LIG    1       -3.147   0.186  -0.612  0.00  0.00    +0.016 A 
BRANCH  21  24
ATOM     24  C   LIG    1       -5.810   2.688   0.392  0.00  0.00    +0.344 C 
ATOM     25  O   LIG    1       -6.900   2.191   0.025  0.00  0.00    -0.245 OA
BRANCH  24  26
ATOM     26  O   LIG    1       -5.704   3.796   0.970  0.00  0.00    -0.477 OA
ATOM     27  H   LIG    1       -6.469   4.306   1.150  0.00  0.00    +0.295 HD
ENDBRANCH  24  26
ENDBRANCH  21  24
ENDBRANCH  18  19
ENDBRANCH   1  17
TORSDOF 4
