REMARK  Name = DB18295
REMARK                            x       y       z     vdW  Elec       q    Type
REMARK                         _______ _______ _______ _____ _____    ______ ____
ROOT
ATOM      1  N   LIG    1        0.097  -0.218  -0.221  0.00  0.00    -0.294 N 
ATOM      2  C   LIG    1       -0.455  -1.467  -0.188  0.00  0.00    +0.199 C 
ATOM      3  O   LIG    1       -1.677  -1.642  -0.127  0.00  0.00    -0.278 OA
ENDROOT
BRANCH   1   4
ATOM      4  C   LIG    1       -0.769   0.977  -0.148  0.00  0.00    +0.111 C 
BRANCH   4   6
ATOM      5  C   LIG    1       -1.850   2.960  -1.298  0.00  0.00    +0.009 C 
ATOM      6  C   LIG    1       -1.042   1.668  -1.506  0.00  0.00    +0.000 C 
ATOM      7  C   LIG    1       -1.743   0.749  -2.525  0.00  0.00    +0.009 C 
ENDBRANCH   4   6
ENDBRANCH   1   4
BRANCH   2   8
ATOM      8  C   LIG    1        0.460  -2.720  -0.226  0.00  0.00    +0.015 C 
BRANCH   8   9
ATOM      9  N   LIG    1       -0.111  -3.718  -1.180  0.00  0.00    +0.385 N 
ATOM     10  H   LIG    1       -1.120  -3.708  -1.107  0.00  0.00    -0.085 HD
ATOM     11  H   LIG    1        0.201  -4.648  -0.938  0.00  0.00    -0.085 HD
BRANCH   9  12
ATOM     12  C   LIG    1        0.279  -3.456  -2.649  0.00  0.00    -0.077 C 
BRANCH  12  13
ATOM     13  C   LIG    1       -0.669  -4.217  -3.598  0.00  0.00    +0.019 C 
BRANCH  13  14
ATOM     14  C   LIG    1       -2.123  -3.765  -3.496  0.00  0.00    -0.014 A 
ATOM     15  C   LIG    1       -2.528  -2.547  -4.059  0.00  0.00    +0.126 A 
ATOM     16  F   LIG    1       -1.640  -1.770  -4.720  0.00  0.00    -0.205 F 
ATOM     17  C   LIG    1       -3.852  -2.125  -3.939  0.00  0.00    +0.038 A 
ATOM     18  C   LIG    1       -4.781  -2.916  -3.263  0.00  0.00    +0.003 A 
ATOM     19  C   LIG    1       -4.386  -4.134  -2.709  0.00  0.00    +0.000 A 
ATOM     20  C   LIG    1       -3.062  -4.558  -2.826  0.00  0.00    +0.006 A 
ENDBRANCH  13  14
ENDBRANCH  12  13
ENDBRANCH   9  12
ENDBRANCH   8   9
ENDBRANCH   2   8
BRANCH   1  21
ATOM     21  C   LIG    1        1.552   0.012  -0.118  0.00  0.00    +0.203 C 
BRANCH  21  22
ATOM     22  C   LIG    1        2.270  -0.094  -1.486  0.00  0.00    +0.233 C 
ATOM     23  N   LIG    1        3.627  -0.208  -1.513  0.00  0.00    -0.291 N 
ATOM     24  O   LIG    1        1.592  -0.084  -2.516  0.00  0.00    -0.274 OA
BRANCH  23  25
ATOM     25  C   LIG    1        4.343  -0.327  -2.801  0.00  0.00    +0.203 C 
BRANCH  25  26
ATOM     26  C   LIG    1        4.477  -1.786  -3.282  0.00  0.00    +0.228 C 
ATOM     27  O   LIG    1        3.860  -2.712  -2.755  0.00  0.00    -0.274 OA
ATOM     28  N   LIG    1        5.293  -1.989  -4.318  0.00  0.00    -0.328 N 
ATOM     29  H   LIG    1        5.422  -2.920  -4.686  0.00  0.00    +0.145 HD
ATOM     30  H   LIG    1        5.786  -1.216  -4.740  0.00  0.00    +0.145 HD
ENDBRANCH  25  26
ENDBRANCH  23  25
BRANCH  23  31
ATOM     31  C   LIG    1        4.445  -0.175  -0.290  0.00  0.00    +0.110 C 
BRANCH  31  32
ATOM     32  C   LIG    1        4.704  -1.565   0.320  0.00  0.00    +0.038 C 
BRANCH  32  33
ATOM     33  C   LIG    1        5.541  -1.480   1.606  0.00  0.00    +0.109 C 
BRANCH  33  34
ATOM     34  N   LIG    1        5.821  -2.787   2.196  0.00  0.00    -0.301 N 
ATOM     35  C   LIG    1        6.874  -3.547   1.817  0.00  0.00    +0.216 C 
ATOM     36  O   LIG    1        7.704  -3.320   0.937  0.00  0.00    -0.276 OA
ATOM     37  C   LIG    1        6.850  -4.781   2.716  0.00  0.00    +0.097 C 
ATOM     38  C   LIG    1        5.510  -4.756   3.428  0.00  0.00    +0.028 C 
ATOM     39  C   LIG    1        5.029  -3.324   3.297  0.00  0.00    +0.108 C 
ENDBRANCH  33  34
ENDBRANCH  32  33
ENDBRANCH  31  32
ENDBRANCH  23  31
ENDBRANCH  21  22
ENDBRANCH   1  21
TORSDOF 15
