REMARK  Name = DB18120
REMARK                            x       y       z     vdW  Elec       q    Type
REMARK                         _______ _______ _______ _____ _____    ______ ____
ROOT
ATOM      1  C   LIG    1        1.490   0.114   0.452  0.00  0.00    +0.144 A 
ATOM      2  N   LIG    1        2.056   1.179   0.967  0.00  0.00    -0.208 NA
ATOM      3  C   LIG    1        3.327   0.778   1.285  0.00  0.00    +0.180 A 
ATOM      4  N   LIG    1        4.273   1.538   1.842  0.00  0.00    -0.233 NA
ATOM      5  C   LIG    1        5.468   0.938   2.074  0.00  0.00    +0.135 A 
ATOM      6  C   LIG    1        5.758  -0.395   1.770  0.00  0.00    +0.082 A 
ATOM      7 CL   LIG    1        7.340  -0.996   2.136  0.00  0.00    -0.080 Cl
ATOM      8  C   LIG    1        4.779  -1.218   1.181  0.00  0.00    +0.077 A 
ATOM      9  C   LIG    1        3.546  -0.585   0.947  0.00  0.00    +0.108 A 
ATOM     10  N   LIG    1        2.337  -0.970   0.412  0.00  0.00    -0.335 N 
ATOM     11  H   LIG    1        2.066  -1.869   0.043  0.00  0.00    +0.167 HD
ENDROOT
BRANCH   1  14
ATOM     12  C   LIG    1       -0.494   2.577  -0.573  0.00  0.00    +0.068 C 
ATOM     13  C   LIG    1       -0.740   1.086  -0.478  0.00  0.00    +0.071 A 
ATOM     14  C   LIG    1        0.121   0.048  -0.047  0.00  0.00    +0.058 A 
ATOM     15  C   LIG    1       -0.636  -1.105  -0.194  0.00  0.00    +0.119 A 
ATOM     16  N   LIG    1       -1.851  -0.702  -0.673  0.00  0.00    -0.274 N 
ATOM     17  C   LIG    1       -3.006  -1.522  -0.994  0.00  0.00    +0.172 C 
ATOM     18  N   LIG    1       -1.916   0.620  -0.845  0.00  0.00    -0.176 NA
ENDBRANCH   1  14
BRANCH   8  19
ATOM     19  N   LIG    1        5.053  -2.543   0.875  0.00  0.00    -0.331 N 
ATOM     20  C   LIG    1        5.271  -2.962  -0.517  0.00  0.00    +0.086 C 
ATOM     21  C   LIG    1        4.015  -3.523  -1.219  0.00  0.00    -0.059 C 
ATOM     22  N   LIG    1        3.463  -4.710  -0.403  0.00  0.00    +0.384 N 
ATOM     23  H   LIG    1        4.177  -5.424  -0.363  0.00  0.00    -0.081 HD
ATOM     24  C   LIG    1        3.170  -4.239   1.038  0.00  0.00    -0.059 C 
ATOM     25  C   LIG    1        4.454  -3.637   1.653  0.00  0.00    +0.086 C 
BRANCH  22  26
ATOM     26  C   LIG    1        2.201  -5.288  -1.084  0.00  0.00    -0.043 C 
BRANCH  26  27
ATOM     27  C   LIG    1        1.654  -6.547  -0.427  0.00  0.00    -0.064 A 
ATOM     28  C   LIG    1        2.265  -7.780  -0.670  0.00  0.00    +0.003 A 
ATOM     29  C   LIG    1        1.759  -8.935  -0.080  0.00  0.00    +0.020 A 
ATOM     30  C   LIG    1        0.639  -8.855   0.746  0.00  0.00    +0.041 A 
ATOM     31 CL   LIG    1        0.013 -10.287   1.479  0.00  0.00    -0.084 Cl
ATOM     32  C   LIG    1        0.020  -7.629   0.984  0.00  0.00    +0.020 A 
ATOM     33  C   LIG    1        0.526  -6.474   0.394  0.00  0.00    +0.003 A 
ENDBRANCH  26  27
ENDBRANCH  22  26
ENDBRANCH   8  19
TORSDOF 4
