REMARK  Name = DB18008
REMARK                            x       y       z     vdW  Elec       q    Type
REMARK                         _______ _______ _______ _____ _____    ______ ____
ROOT
ATOM      1  C   LIG    1        1.535  -0.043  -0.014  0.00  0.00    +0.028 C 
ATOM      2  C   LIG    1        2.211  -0.015  -1.337  0.00  0.00    +0.225 C 
ATOM      3  O   LIG    1        1.617   0.065  -2.417  0.00  0.00    -0.284 OA
ATOM      4  C   LIG    1        3.684  -0.061  -1.227  0.00  0.00    +0.171 C 
ATOM      5  C   LIG    1        4.377  -0.192  -0.063  0.00  0.00    +0.054 C 
ATOM      6  C   LIG    1        3.684  -0.343   1.251  0.00  0.00    +0.207 C 
ATOM      7  O   LIG    1        4.274  -0.588   2.306  0.00  0.00    -0.285 OA
ATOM      8  C   LIG    1        2.203  -0.185   1.169  0.00  0.00    +0.082 C 
ENDROOT
BRANCH   5   9
ATOM      9  C   LIG    1        5.928  -0.217  -0.029  0.00  0.00    +0.056 C 
ATOM     10  C   LIG    1        6.542   1.014   0.722  0.00  0.00    +0.026 C 
ATOM     11  C   LIG    1        8.063   0.836   0.907  0.00  0.00    +0.013 C 
ATOM     12  C   LIG    1        8.344  -0.370   1.827  0.00  0.00    +0.031 C 
ATOM     13  C   LIG    1        7.583  -1.612   1.354  0.00  0.00    -0.076 C 
ATOM     14  C   LIG    1        8.031  -2.941   1.934  0.00  0.00    +0.039 C 
ATOM     15  C   LIG    1        6.505  -1.522   0.540  0.00  0.00    -0.019 C 
BRANCH  10  16
ATOM     16  C   LIG    1        6.221   2.391   0.125  0.00  0.00    -0.076 C 
ATOM     17  C   LIG    1        6.149   2.630  -1.198  0.00  0.00    +0.007 C 
ATOM     18  C   LIG    1        5.987   3.502   1.137  0.00  0.00    +0.039 C 
ENDBRANCH  10  16
ENDBRANCH   5   9
BRANCH   4  19
ATOM     19  O   LIG    1        4.297   0.048  -2.441  0.00  0.00    -0.503 OA
ATOM     20  H   LIG    1        3.631   0.131  -3.127  0.00  0.00    +0.292 HD
ENDBRANCH   4  19
BRANCH   8  21
ATOM     21  N   LIG    1        1.486  -0.172   2.355  0.00  0.00    -0.336 N 
ATOM     22  H   LIG    1        0.490  -0.300   2.248  0.00  0.00    +0.147 HD
BRANCH  21  23
ATOM     23  C   LIG    1        1.742   0.686   3.504  0.00  0.00    +0.137 C 
BRANCH  23  24
ATOM     24  C   LIG    1        0.676   0.451   4.559  0.00  0.00    -0.030 A 
ATOM     25  C   LIG    1        0.848  -0.553   5.515  0.00  0.00    +0.005 A 
ATOM     26  C   LIG    1       -0.151  -0.792   6.456  0.00  0.00    +0.000 A 
ATOM     27  C   LIG    1       -1.318  -0.031   6.432  0.00  0.00    +0.000 A 
ATOM     28  C   LIG    1       -1.496   0.968   5.477  0.00  0.00    +0.000 A 
ATOM     29  C   LIG    1       -0.499   1.207   4.536  0.00  0.00    +0.005 A 
ENDBRANCH  23  24
ENDBRANCH  21  23
ENDBRANCH   8  21
BRANCH   1  30
ATOM     30  C   LIG    1       -0.000   0.091  -0.084  0.00  0.00    +0.041 C 
BRANCH  30  31
ATOM     31  C   LIG    1       -0.506   1.517   0.207  0.00  0.00    +0.005 C 
BRANCH  31  32
ATOM     32  C   LIG    1       -2.044   1.613   0.237  0.00  0.00    +0.000 C 
BRANCH  32  34
ATOM     33  C   LIG    1       -2.271   3.620   1.850  0.00  0.00    +0.004 C 
ATOM     34  C   LIG    1       -2.585   3.037   0.464  0.00  0.00    -0.003 C 
ENDBRANCH  32  34
ENDBRANCH  31  32
ENDBRANCH  30  31
ENDBRANCH   1  30
TORSDOF 10
