REMARK  Name = DB18043
REMARK                            x       y       z     vdW  Elec       q    Type
REMARK                         _______ _______ _______ _____ _____    ______ ____
ROOT
ATOM      1 SE   LIG    1       -0.081  -0.281  -0.426  0.00  0.00    +0.000 Se
ENDROOT
BRANCH   1   2
ATOM      2  C   LIG    1       -0.087   1.611   0.124  0.00  0.00    +0.000 C 
BRANCH   2   3
ATOM      3  C   LIG    1        0.311   2.509  -1.072  0.00  0.00    +0.000 C 
BRANCH   3   4
ATOM      4  C   LIG    1        0.308   4.029  -0.783  0.00  0.00    +0.000 C 
ATOM      5  O   LIG    1        0.062   4.450   0.372  0.00  0.00    +0.000 OA
BRANCH   4   6
ATOM      6  O   LIG    1        0.564   4.773  -1.756  0.00  0.00    +0.000 OA
ATOM      7  H   LIG    1        0.674   4.405  -2.611  0.00  0.00    +0.000 HD
ENDBRANCH   4   6
ENDBRANCH   3   4
ENDBRANCH   2   3
ENDBRANCH   1   2
BRANCH   1   8
ATOM      8 SE   LIG    1        2.173  -0.803  -0.343  0.00  0.00    +0.000 Se
BRANCH   8   9
ATOM      9  C   LIG    1        2.442  -1.172   1.574  0.00  0.00    +0.000 C 
BRANCH   9  10
ATOM     10  C   LIG    1        3.231  -0.014   2.232  0.00  0.00    +0.000 C 
BRANCH  10  11
ATOM     11  C   LIG    1        3.534  -0.205   3.737  0.00  0.00    +0.000 C 
ATOM     12  O   LIG    1        4.317   0.626   4.250  0.00  0.00    +0.000 OA
BRANCH  11  13
ATOM     13  O   LIG    1        2.997  -1.142   4.373  0.00  0.00    +0.000 OA
ATOM     14  H   LIG    1        3.182  -1.256   5.285  0.00  0.00    +0.000 HD
ENDBRANCH  11  13
ENDBRANCH  10  11
ENDBRANCH   9  10
ENDBRANCH   8   9
ENDBRANCH   1   8
TORSDOF 9
