REMARK  Name = DB18633
REMARK                            x       y       z     vdW  Elec       q    Type
REMARK                         _______ _______ _______ _____ _____    ______ ____
ROOT
ATOM      1  C   LIG    1        1.911  -0.398   0.349  0.00  0.00    +0.282 C 
ATOM      2  C   LIG    1        2.349  -1.768  -0.208  0.00  0.00    +0.201 C 
ATOM      3  C   LIG    1        3.884  -1.930  -0.125  0.00  0.00    +0.179 C 
ATOM      4  C   LIG    1        4.607  -0.695  -0.697  0.00  0.00    +0.183 C 
ATOM      5  C   LIG    1        4.063   0.565   0.012  0.00  0.00    +0.178 C 
ATOM      6  O   LIG    1        2.656   0.637  -0.249  0.00  0.00    -0.341 OA
ENDROOT
BRANCH   2   7
ATOM      7  O   LIG    1        1.685  -2.820   0.470  0.00  0.00    -0.384 OA
ATOM      8  H   LIG    1        0.750  -2.776   0.255  0.00  0.00    +0.210 HD
ENDBRANCH   2   7
BRANCH   3   9
ATOM      9  O   LIG    1        4.343  -3.133  -0.713  0.00  0.00    -0.386 OA
ATOM     10  H   LIG    1        4.099  -3.131  -1.642  0.00  0.00    +0.210 HD
ENDBRANCH   3   9
BRANCH   1  11
ATOM     11  O   LIG    1        0.551  -0.263   0.047  0.00  0.00    -0.345 OA
BRANCH  11  27
ATOM     12  C   LIG    1       -3.915   8.298   4.155  0.00  0.00    +0.126 C 
ATOM     13  O   LIG    1       -4.742   8.789   5.199  0.00  0.00    -0.345 OA
ATOM     14  C   LIG    1       -5.925   9.318   4.671  0.00  0.00    +0.170 C 
ATOM     15  C   LIG    1       -6.310   8.314   3.559  0.00  0.00    +0.051 C 
ATOM     16  C   LIG    1       -7.236   8.859   2.446  0.00  0.00    +0.013 C 
ATOM     17  C   LIG    1       -4.918   7.842   3.077  0.00  0.00    +0.032 C 
ATOM     18  C   LIG    1       -4.677   6.306   2.865  0.00  0.00    -0.023 C 
ATOM     19  C   LIG    1       -5.569   5.417   3.792  0.00  0.00    +0.012 C 
ATOM     20  C   LIG    1       -4.782   5.840   1.390  0.00  0.00    +0.007 C 
ATOM     21  C   LIG    1       -4.249   4.396   1.198  0.00  0.00    +0.005 C 
ATOM     22  C   LIG    1       -2.795   4.190   1.742  0.00  0.00    -0.001 C 
ATOM     23  C   LIG    1       -2.246   2.713   1.620  0.00  0.00    -0.026 C 
ATOM     24  C   LIG    1       -3.063   1.727   2.512  0.00  0.00    +0.012 C 
ATOM     25  C   LIG    1       -2.290   2.236   0.130  0.00  0.00    +0.010 C 
ATOM     26  C   LIG    1       -1.550   0.903  -0.131  0.00  0.00    +0.032 C 
ATOM     27  C   LIG    1       -0.083   0.983   0.339  0.00  0.00    +0.122 C 
ATOM     28  C   LIG    1       -0.018   1.408   1.825  0.00  0.00    +0.035 C 
ATOM     29  C   LIG    1       -0.727   2.770   2.031  0.00  0.00    -0.002 C 
ATOM     30  C   LIG    1       -0.541   3.316   3.468  0.00  0.00    +0.004 C 
ATOM     31  C   LIG    1       -1.116   4.736   3.596  0.00  0.00    +0.004 C 
ATOM     32  C   LIG    1       -2.608   4.782   3.187  0.00  0.00    -0.004 C 
ATOM     33  C   LIG    1       -3.176   6.226   3.231  0.00  0.00    +0.001 C 
ATOM     34  C   LIG    1       -3.042   7.080   4.494  0.00  0.00    +0.036 C 
BRANCH  14  35
ATOM     35  O   LIG    1       -5.738  10.559   4.094  0.00  0.00    -0.364 OA
ATOM     36  H   LIG    1       -6.561  10.813   3.672  0.00  0.00    +0.213 HD
ENDBRANCH  14  35
BRANCH  14  37
ATOM     37  C   LIG    1       -6.947   9.413   5.816  0.00  0.00    +0.065 C 
BRANCH  37  38
ATOM     38  C   LIG    1       -6.499  10.347   6.967  0.00  0.00    +0.011 C 
BRANCH  38  39
ATOM     39  C   LIG    1       -7.459  10.397   8.182  0.00  0.00    +0.012 C 
ATOM     40  C   LIG    1       -7.526   9.048   8.931  0.00  0.00    +0.010 C 
BRANCH  39  41
ATOM     41  C   LIG    1       -7.063  11.556   9.132  0.00  0.00    +0.166 C 
BRANCH  41  42
ATOM     42  O   LIG    1       -7.827  11.600  10.338  0.00  0.00    -0.348 OA
BRANCH  42  43
ATOM     43  C   LIG    1       -9.136  12.076  10.233  0.00  0.00    +0.282 C 
ATOM     44  C   LIG    1       -9.798  11.881  11.606  0.00  0.00    +0.201 C 
ATOM     45  C   LIG    1      -11.225  12.483  11.597  0.00  0.00    +0.179 C 
ATOM     46  C   LIG    1      -11.251  13.915  11.011  0.00  0.00    +0.177 C 
ATOM     47  C   LIG    1      -10.431  13.988   9.694  0.00  0.00    +0.178 C 
ATOM     48  O   LIG    1       -9.126  13.446   9.923  0.00  0.00    -0.341 OA
BRANCH  44  49
ATOM     49  O   LIG    1       -9.823  10.509  11.964  0.00  0.00    -0.384 OA
ATOM     50  H   LIG    1       -8.917  10.208  12.068  0.00  0.00    +0.210 HD
ENDBRANCH  44  49
BRANCH  45  51
ATOM     51  O   LIG    1      -11.800  12.448  12.893  0.00  0.00    -0.386 OA
ATOM     52  H   LIG    1      -12.532  11.827  12.884  0.00  0.00    +0.210 HD
ENDBRANCH  45  51
BRANCH  46  53
ATOM     53  O   LIG    1      -12.588  14.347  10.821  0.00  0.00    -0.386 OA
ATOM     54  H   LIG    1      -12.577  15.278  10.587  0.00  0.00    +0.210 HD
ENDBRANCH  46  53
BRANCH  47  55
ATOM     55  C   LIG    1      -10.225  15.422   9.155  0.00  0.00    +0.190 C 
BRANCH  55  56
ATOM     56  O   LIG    1      -11.415  15.972   8.628  0.00  0.00    -0.392 OA
ATOM     57  H   LIG    1      -11.222  16.849   8.286  0.00  0.00    +0.210 HD
ENDBRANCH  55  56
ENDBRANCH  47  55
ENDBRANCH  42  43
ENDBRANCH  41  42
ENDBRANCH  39  41
ENDBRANCH  38  39
ENDBRANCH  37  38
ENDBRANCH  14  37
ENDBRANCH  11  27
ENDBRANCH   1  11
BRANCH   4  58
ATOM     58  O   LIG    1        4.345  -0.516  -2.091  0.00  0.00    -0.340 OA
BRANCH  58  59
ATOM     59  C   LIG    1        5.276  -0.996  -3.004  0.00  0.00    +0.283 C 
ATOM     60  C   LIG    1        4.748  -0.656  -4.410  0.00  0.00    +0.208 C 
ATOM     61  C   LIG    1        5.787  -1.112  -5.465  0.00  0.00    +0.186 C 
ATOM     62  C   LIG    1        7.234  -0.656  -5.123  0.00  0.00    +0.177 C 
ATOM     63  C   LIG    1        7.557  -0.903  -3.625  0.00  0.00    +0.178 C 
ATOM     64  O   LIG    1        6.509  -0.351  -2.822  0.00  0.00    -0.341 OA
BRANCH  62  65
ATOM     65  O   LIG    1        8.156  -1.329  -5.961  0.00  0.00    -0.386 OA
ATOM     66  H   LIG    1        9.031  -0.963  -5.809  0.00  0.00    +0.210 HD
ENDBRANCH  62  65
BRANCH  61  67
ATOM     67  O   LIG    1        5.303  -0.808  -6.783  0.00  0.00    -0.340 OA
BRANCH  67  68
ATOM     68  C   LIG    1        5.689   0.375  -7.426  0.00  0.00    +0.282 C 
ATOM     69  C   LIG    1        4.911   0.429  -8.757  0.00  0.00    +0.201 C 
ATOM     70  C   LIG    1        5.158   1.777  -9.482  0.00  0.00    +0.178 C 
ATOM     71  C   LIG    1        4.934   2.956  -8.518  0.00  0.00    +0.171 C 
ATOM     72  C   LIG    1        5.762   2.732  -7.242  0.00  0.00    +0.197 C 
ATOM     73  O   LIG    1        5.395   1.498  -6.628  0.00  0.00    -0.346 OA
BRANCH  69  74
ATOM     74  O   LIG    1        5.254  -0.670  -9.583  0.00  0.00    -0.384 OA
ATOM     75  H   LIG    1        4.997  -1.479  -9.134  0.00  0.00    +0.210 HD
ENDBRANCH  69  74
BRANCH  70  76
ATOM     76  O   LIG    1        4.347   1.899 -10.641  0.00  0.00    -0.386 OA
ATOM     77  H   LIG    1        3.426   1.849 -10.377  0.00  0.00    +0.210 HD
ENDBRANCH  70  76
BRANCH  71  78
ATOM     78  O   LIG    1        5.274   4.197  -9.110  0.00  0.00    -0.387 OA
ATOM     79  H   LIG    1        4.649   4.378  -9.816  0.00  0.00    +0.210 HD
ENDBRANCH  71  78
ENDBRANCH  67  68
ENDBRANCH  61  67
BRANCH  60  80
ATOM     80  O   LIG    1        3.497  -1.289  -4.716  0.00  0.00    -0.338 OA
BRANCH  80  81
ATOM     81  C   LIG    1        2.299  -0.664  -4.336  0.00  0.00    +0.282 C 
ATOM     82  C   LIG    1        1.760   0.150  -5.530  0.00  0.00    +0.201 C 
ATOM     83  C   LIG    1        0.370   0.734  -5.184  0.00  0.00    +0.179 C 
ATOM     84  C   LIG    1       -0.579  -0.347  -4.627  0.00  0.00    +0.177 C 
ATOM     85  C   LIG    1        0.113  -1.179  -3.519  0.00  0.00    +0.178 C 
ATOM     86  O   LIG    1        1.374  -1.668  -4.000  0.00  0.00    -0.341 OA
BRANCH  82  87
ATOM     87  O   LIG    1        2.635   1.193  -5.914  0.00  0.00    -0.384 OA
ATOM     88  H   LIG    1        3.462   0.804  -6.212  0.00  0.00    +0.210 HD
ENDBRANCH  82  87
BRANCH  83  89
ATOM     89  O   LIG    1       -0.206   1.396  -6.299  0.00  0.00    -0.386 OA
ATOM     90  H   LIG    1        0.494   1.858  -6.768  0.00  0.00    +0.210 HD
ENDBRANCH  83  89
BRANCH  84  91
ATOM     91  O   LIG    1       -1.795   0.221  -4.167  0.00  0.00    -0.386 OA
ATOM     92  H   LIG    1       -1.591   0.902  -3.522  0.00  0.00    +0.210 HD
ENDBRANCH  84  91
BRANCH  85  93
ATOM     93  C   LIG    1       -0.751  -2.389  -3.097  0.00  0.00    +0.190 C 
BRANCH  93  94
ATOM     94  O   LIG    1       -0.164  -3.101  -2.030  0.00  0.00    -0.392 OA
ATOM     95  H   LIG    1        0.640  -3.517  -2.350  0.00  0.00    +0.210 HD
ENDBRANCH  93  94
ENDBRANCH  85  93
ENDBRANCH  80  81
ENDBRANCH  60  80
BRANCH  63  96
ATOM     96  C   LIG    1        8.871  -0.248  -3.142  0.00  0.00    +0.190 C 
BRANCH  96  97
ATOM     97  O   LIG    1       10.014  -0.882  -3.679  0.00  0.00    -0.392 OA
ATOM     98  H   LIG    1       10.797  -0.470  -3.304  0.00  0.00    +0.210 HD
ENDBRANCH  96  97
ENDBRANCH  63  96
ENDBRANCH  58  59
ENDBRANCH   4  58
BRANCH   5  99
ATOM     99  C   LIG    1        4.716   1.880  -0.466  0.00  0.00    +0.190 C 
BRANCH  99 100
ATOM    100  O   LIG    1        6.101   1.901  -0.182  0.00  0.00    -0.392 OA
ATOM    101  H   LIG    1        6.540   1.272  -0.759  0.00  0.00    +0.210 HD
ENDBRANCH  99 100
ENDBRANCH   5  99
TORSDOF 35
