REMARK  Name = DB18588
REMARK                            x       y       z     vdW  Elec       q    Type
REMARK                         _______ _______ _______ _____ _____    ______ ____
ROOT
ATOM      1  C   LIG    1        1.571   0.534  -0.320  0.00  0.00    +0.023 C 
ENDROOT
BRANCH   1   2
ATOM      2  C   LIG    1        1.966   1.257   0.995  0.00  0.00    +0.201 C 
ATOM      3  N   LIG    1        3.285   1.511   1.113  0.00  0.00    -0.287 N 
ATOM      4  H   LIG    1        3.905   1.146   0.406  0.00  0.00    +0.155 HD
ATOM      5  O   LIG    1        1.138   1.576   1.849  0.00  0.00    -0.278 OA
BRANCH   3   6
ATOM      6  C   LIG    1        3.901   2.163   2.198  0.00  0.00    +0.039 A 
ATOM      7  C   LIG    1        4.885   1.460   2.922  0.00  0.00    -0.029 A 
ATOM      8  C   LIG    1        5.269   0.026   2.571  0.00  0.00    +0.045 C 
ATOM      9  C   LIG    1        5.519   2.076   4.005  0.00  0.00    +0.005 A 
ATOM     10  C   LIG    1        5.197   3.381   4.364  0.00  0.00    +0.001 A 
ATOM     11  C   LIG    1        4.245   4.088   3.637  0.00  0.00    +0.005 A 
ATOM     12  C   LIG    1        3.593   3.498   2.549  0.00  0.00    -0.029 A 
ATOM     13  C   LIG    1        2.621   4.361   1.750  0.00  0.00    +0.045 C 
ENDBRANCH   3   6
ENDBRANCH   1   2
BRANCH   1  14
ATOM     14  N   LIG    1        0.173  -0.092  -0.387  0.00  0.00    +0.388 N 
BRANCH  14  16
ATOM     15  C   LIG    1       -2.311   0.686  -0.852  0.00  0.00    -0.016 C 
ATOM     16  C   LIG    1       -0.938   1.008  -0.216  0.00  0.00    -0.077 C 
ENDBRANCH  14  16
BRANCH  14  17
ATOM     17  C   LIG    1        0.084  -0.810  -1.782  0.00  0.00    -0.077 C 
ATOM     18  C   LIG    1        0.313   0.108  -3.007  0.00  0.00    -0.016 C 
ENDBRANCH  14  17
BRANCH  14  19
ATOM     19  C   LIG    1        0.080  -1.200   0.723  0.00  0.00    -0.039 C 
BRANCH  19  20
ATOM     20  C   LIG    1       -1.193  -2.038   0.810  0.00  0.00    -0.063 A 
ATOM     21  C   LIG    1       -2.203  -1.676   1.707  0.00  0.00    +0.002 A 
ATOM     22  C   LIG    1       -3.350  -2.458   1.818  0.00  0.00    +0.000 A 
ATOM     23  C   LIG    1       -3.478  -3.609   1.045  0.00  0.00    +0.000 A 
ATOM     24  C   LIG    1       -2.465  -3.990   0.167  0.00  0.00    +0.000 A 
ATOM     25  C   LIG    1       -1.318  -3.209   0.056  0.00  0.00    +0.002 A 
ENDBRANCH  19  20
ENDBRANCH  14  19
ENDBRANCH   1  14
TORSDOF 7
