REMARK  Name = DB18540
REMARK                            x       y       z     vdW  Elec       q    Type
REMARK                         _______ _______ _______ _____ _____    ______ ____
ROOT
ATOM      1  C   LIG    1       -2.545   0.646   1.563  0.00  0.00    +0.184 C 
ATOM      2  C   LIG    1       -2.010  -0.810   1.466  0.00  0.00    +0.180 C 
ATOM      3  C   LIG    1       -0.485  -0.872   1.179  0.00  0.00    +0.214 C 
ATOM      4  C   LIG    1       -0.116   0.091   0.042  0.00  0.00    +0.339 C 
ATOM      5  O   LIG    1       -0.528   1.380   0.408  0.00  0.00    -0.331 OA
ATOM      6  C   LIG    1       -1.948   1.524   0.431  0.00  0.00    +0.179 C 
ENDROOT
BRANCH   2   7
ATOM      7  O   LIG    1       -2.285  -1.550   2.642  0.00  0.00    -0.386 OA
ATOM      8  H   LIG    1       -3.184  -1.353   2.918  0.00  0.00    +0.210 HD
ENDBRANCH   2   7
BRANCH   3   9
ATOM      9  O   LIG    1       -0.065  -2.194   0.883  0.00  0.00    -0.383 OA
ATOM     10  H   LIG    1       -0.743  -2.618   0.353  0.00  0.00    +0.210 HD
ENDBRANCH   3   9
BRANCH   1  11
ATOM     11  O   LIG    1       -3.972   0.729   1.451  0.00  0.00    -0.340 OA
BRANCH  11  12
ATOM     12  C   LIG    1       -4.746   0.449   2.581  0.00  0.00    +0.282 C 
ATOM     13  C   LIG    1       -6.091   1.177   2.401  0.00  0.00    +0.201 C 
ATOM     14  C   LIG    1       -7.061   0.809   3.551  0.00  0.00    +0.179 C 
ATOM     15  C   LIG    1       -7.142  -0.719   3.763  0.00  0.00    +0.177 C 
ATOM     16  C   LIG    1       -5.718  -1.329   3.818  0.00  0.00    +0.178 C 
ATOM     17  O   LIG    1       -4.987  -0.933   2.652  0.00  0.00    -0.341 OA
BRANCH  13  18
ATOM     18  O   LIG    1       -5.910   2.580   2.327  0.00  0.00    -0.384 OA
ATOM     19  H   LIG    1       -5.714   2.910   3.207  0.00  0.00    +0.210 HD
ENDBRANCH  13  18
BRANCH  14  20
ATOM     20  O   LIG    1       -8.348   1.363   3.333  0.00  0.00    -0.386 OA
ATOM     21  H   LIG    1       -8.242   2.226   2.924  0.00  0.00    +0.210 HD
ENDBRANCH  14  20
BRANCH  15  22
ATOM     22  O   LIG    1       -7.886  -1.038   4.926  0.00  0.00    -0.386 OA
ATOM     23  H   LIG    1       -8.782  -0.709   4.812  0.00  0.00    +0.210 HD
ENDBRANCH  15  22
BRANCH  16  24
ATOM     24  C   LIG    1       -5.683  -2.871   3.922  0.00  0.00    +0.190 C 
BRANCH  24  25
ATOM     25  O   LIG    1       -6.354  -3.496   2.845  0.00  0.00    -0.392 OA
ATOM     26  H   LIG    1       -7.294  -3.322   2.928  0.00  0.00    +0.210 HD
ENDBRANCH  24  25
ENDBRANCH  16  24
ENDBRANCH  11  12
ENDBRANCH   1  11
BRANCH   4  27
ATOM     27  O   LIG    1        1.277   0.063  -0.091  0.00  0.00    -0.460 OA
BRANCH  27  28
ATOM     28  C   LIG    1        1.911   0.769  -1.101  0.00  0.00    +0.131 A 
ATOM     29  C   LIG    1        3.322   0.755  -1.117  0.00  0.00    +0.043 A 
ATOM     30  C   LIG    1        4.174   0.017  -0.068  0.00  0.00    +0.056 C 
ATOM     31  C   LIG    1        3.803   0.218   1.408  0.00  0.00    -0.019 C 
ATOM     32  C   LIG    1        4.671   0.086   2.438  0.00  0.00    -0.076 C 
ATOM     33  C   LIG    1        4.233   0.281   3.878  0.00  0.00    +0.039 C 
ATOM     34  C   LIG    1        6.163  -0.186   2.213  0.00  0.00    +0.030 C 
ATOM     35  C   LIG    1        6.487  -0.535   0.741  0.00  0.00    +0.012 C 
ATOM     36  C   LIG    1        5.683   0.363  -0.226  0.00  0.00    +0.044 C 
ATOM     37  C   LIG    1        6.115   0.352  -1.725  0.00  0.00    +0.109 C 
ATOM     38  C   LIG    1        7.572   0.842  -1.876  0.00  0.00    +0.055 C 
ATOM     39  C   LIG    1        5.871  -1.009  -2.425  0.00  0.00    +0.055 C 
ATOM     40  O   LIG    1        5.349   1.383  -2.370  0.00  0.00    -0.486 OA
ATOM     41  C   LIG    1        3.975   1.367  -2.208  0.00  0.00    +0.129 A 
ATOM     42  C   LIG    1        3.266   2.040  -3.199  0.00  0.00    +0.049 A 
ATOM     43  C   LIG    1        1.877   2.095  -3.148  0.00  0.00    -0.040 A 
ATOM     44  C   LIG    1        1.208   1.459  -2.105  0.00  0.00    +0.050 A 
BRANCH  43  45
ATOM     45  C   LIG    1        1.095   2.823  -4.235  0.00  0.00    +0.035 C 
BRANCH  45  46
ATOM     46  C   LIG    1        0.883   1.989  -5.514  0.00  0.00    +0.005 C 
BRANCH  46  47
ATOM     47  C   LIG    1        0.013   0.729  -5.311  0.00  0.00    +0.000 C 
BRANCH  47  48
ATOM     48  C   LIG    1       -0.179  -0.122  -6.581  0.00  0.00    -0.003 C 
ATOM     49  C   LIG    1       -0.998   0.564  -7.685  0.00  0.00    +0.004 C 
ENDBRANCH  47  48
ENDBRANCH  46  47
ENDBRANCH  45  46
ENDBRANCH  43  45
ENDBRANCH  27  28
ENDBRANCH   4  27
BRANCH   6  50
ATOM     50  C   LIG    1       -2.234   3.030   0.583  0.00  0.00    +0.197 C 
BRANCH  50  51
ATOM     51  O   LIG    1       -3.632   3.283   0.458  0.00  0.00    -0.346 OA
BRANCH  51  52
ATOM     52  C   LIG    1       -4.050   4.591   0.179  0.00  0.00    +0.282 C 
ATOM     53  C   LIG    1       -3.542   5.598   1.235  0.00  0.00    +0.201 C 
ATOM     54  C   LIG    1       -4.046   7.016   0.877  0.00  0.00    +0.179 C 
ATOM     55  C   LIG    1       -3.754   7.363  -0.603  0.00  0.00    +0.177 C 
ATOM     56  C   LIG    1       -4.206   6.215  -1.542  0.00  0.00    +0.178 C 
ATOM     57  O   LIG    1       -3.623   4.983  -1.099  0.00  0.00    -0.341 OA
BRANCH  53  58
ATOM     58  O   LIG    1       -3.938   5.219   2.542  0.00  0.00    -0.384 OA
ATOM     59  H   LIG    1       -4.864   5.442   2.656  0.00  0.00    +0.210 HD
ENDBRANCH  53  58
BRANCH  54  60
ATOM     60  O   LIG    1       -3.505   7.992   1.753  0.00  0.00    -0.386 OA
ATOM     61  H   LIG    1       -3.451   7.614   2.634  0.00  0.00    +0.210 HD
ENDBRANCH  54  60
BRANCH  55  62
ATOM     62  O   LIG    1       -4.348   8.598  -0.970  0.00  0.00    -0.386 OA
ATOM     63  H   LIG    1       -5.280   8.570  -0.744  0.00  0.00    +0.210 HD
ENDBRANCH  55  62
BRANCH  56  64
ATOM     64  C   LIG    1       -3.784   6.439  -3.010  0.00  0.00    +0.190 C 
BRANCH  64  65
ATOM     65  O   LIG    1       -4.323   5.437  -3.848  0.00  0.00    -0.392 OA
ATOM     66  H   LIG    1       -5.276   5.546  -3.884  0.00  0.00    +0.210 HD
ENDBRANCH  64  65
ENDBRANCH  56  64
ENDBRANCH  51  52
ENDBRANCH  50  51
ENDBRANCH   6  50
TORSDOF 23
