REMARK  Name = DB18490
REMARK                            x       y       z     vdW  Elec       q    Type
REMARK                         _______ _______ _______ _____ _____    ______ ____
ROOT
ATOM      1  C   LIG    1        1.641   0.008  -0.252  0.00  0.00    +0.023 A 
ATOM      2  C   LIG    1        2.332   1.067  -0.862  0.00  0.00    +0.015 A 
ATOM      3  C   LIG    1        3.727   1.091  -0.881  0.00  0.00    -0.042 A 
ATOM      4  C   LIG    1        4.663   2.144  -1.435  0.00  0.00    +0.037 C 
ATOM      5  C   LIG    1        6.025   1.449  -1.399  0.00  0.00    +0.032 C 
ATOM      6  C   LIG    1        5.937   0.399  -0.288  0.00  0.00    +0.104 C 
ATOM      7  C   LIG    1        4.452   0.087  -0.235  0.00  0.00    -0.024 A 
ATOM      8  C   LIG    1        3.781  -0.969   0.381  0.00  0.00    +0.006 A 
ATOM      9  C   LIG    1        2.387  -1.010   0.364  0.00  0.00    +0.012 A 
ENDROOT
BRANCH   1  13
ATOM     10  C   LIG    1       -1.779  -0.690   0.057  0.00  0.00    +0.227 A 
ATOM     11  O   LIG    1       -1.906   0.494  -0.586  0.00  0.00    -0.338 OA
ATOM     12  N   LIG    1       -0.597   0.928  -0.782  0.00  0.00    -0.056 NA
ATOM     13  C   LIG    1        0.136  -0.035  -0.254  0.00  0.00    +0.202 A 
ATOM     14  N   LIG    1       -0.542  -1.045   0.266  0.00  0.00    -0.191 NA
BRANCH  10  16
ATOM     15  C   LIG    1       -3.548  -2.280  -0.799  0.00  0.00    +0.014 C 
ATOM     16  C   LIG    1       -3.034  -1.464   0.395  0.00  0.00    +0.095 C 
ENDBRANCH  10  16
ENDBRANCH   1  13
BRANCH   6  17
ATOM     17  N   LIG    1        6.447   0.904   0.990  0.00  0.00    -0.304 N 
ATOM     18  H   LIG    1        6.465   1.908   1.098  0.00  0.00    +0.150 HD
ATOM     19  C   LIG    1        6.839   0.141   2.027  0.00  0.00    +0.248 C 
ATOM     20  O   LIG    1        6.839  -1.091   2.018  0.00  0.00    -0.270 OA
BRANCH  19  21
ATOM     21  C   LIG    1        7.277   0.881   3.181  0.00  0.00    +0.074 A 
ATOM     22  C   LIG    1        7.034   2.211   3.514  0.00  0.00    +0.121 A 
ATOM     23  N   LIG    1        7.607   2.402   4.745  0.00  0.00    -0.274 N 
ATOM     24  C   LIG    1        7.655   3.623   5.528  0.00  0.00    +0.172 C 
ATOM     25  N   LIG    1        8.179   1.291   5.226  0.00  0.00    -0.179 NA
ATOM     26  C   LIG    1        7.957   0.380   4.305  0.00  0.00    +0.147 A 
ENDBRANCH  19  21
ENDBRANCH   6  17
TORSDOF 4
