REMARK  Name = DB18151
REMARK                            x       y       z     vdW  Elec       q    Type
REMARK                         _______ _______ _______ _____ _____    ______ ____
ROOT
ATOM      1  C   LIG    1        1.966  -1.499   0.207  0.00  0.00    -0.029 A 
ATOM      2  C   LIG    1        3.357  -1.709   0.202  0.00  0.00    +0.045 A 
ATOM      3 CL   LIG    1        4.474  -0.391   0.327  0.00  0.00    -0.083 Cl
ATOM      4  C   LIG    1        3.875  -3.001   0.097  0.00  0.00    +0.035 A 
ATOM      5  C   LIG    1        3.017  -4.096  -0.003  0.00  0.00    +0.014 A 
ATOM      6  C   LIG    1        1.638  -3.903   0.018  0.00  0.00    +0.015 A 
ATOM      7  C   LIG    1        1.117  -2.614   0.123  0.00  0.00    +0.006 A 
ENDROOT
BRANCH   1   8
ATOM      8  C   LIG    1        1.412  -0.072   0.313  0.00  0.00    +0.035 C 
BRANCH   8   9
ATOM      9  C   LIG    1       -0.114   0.107   0.086  0.00  0.00    -0.004 C 
BRANCH   9  10
ATOM     10  C   LIG    1       -0.658   1.574   0.068  0.00  0.00    -0.024 C 
BRANCH  10  11
ATOM     11  N   LIG    1       -0.103   2.278  -1.190  0.00  0.00    +0.385 N 
ATOM     12  H   LIG    1       -0.444   3.228  -1.241  0.00  0.00    -0.089 HD
ATOM     13  H   LIG    1        0.906   2.293  -1.166  0.00  0.00    -0.089 HD
ATOM     14  H   LIG    1       -0.401   1.782  -2.018  0.00  0.00    -0.089 HD
ENDBRANCH  10  11
BRANCH  10  15
ATOM     15  C   LIG    1       -2.216   1.598  -0.032  0.00  0.00    +0.145 C 
BRANCH  15  16
ATOM     16  O   LIG    1       -2.739   0.845  -1.115  0.00  0.00    -0.396 OA
ATOM     17  H   LIG    1       -3.698   0.870  -1.071  0.00  0.00    +0.209 HD
ENDBRANCH  15  16
ENDBRANCH  10  15
BRANCH  10  18
ATOM     18  C   LIG    1       -0.186   2.414   1.293  0.00  0.00    +0.145 C 
BRANCH  18  19
ATOM     19  O   LIG    1       -0.573   1.830   2.522  0.00  0.00    -0.396 OA
ATOM     20  H   LIG    1       -0.251   2.381   3.240  0.00  0.00    +0.209 HD
ENDBRANCH  18  19
ENDBRANCH  10  18
ENDBRANCH   9  10
ENDBRANCH   8   9
ENDBRANCH   1   8
BRANCH   5  21
ATOM     21  S   LIG    1        3.674  -5.729  -0.159  0.00  0.00    -0.089 S 
BRANCH  21  22
ATOM     22  C   LIG    1        4.580  -5.608  -1.672  0.00  0.00    +0.016 A 
ATOM     23  C   LIG    1        3.943  -5.198  -2.846  0.00  0.00    +0.060 A 
ATOM     24  C   LIG    1        4.652  -5.090  -4.045  0.00  0.00    +0.122 A 
ATOM     25  C   LIG    1        6.021  -5.409  -4.051  0.00  0.00    +0.046 A 
ATOM     26  C   LIG    1        6.657  -5.826  -2.881  0.00  0.00    +0.005 A 
ATOM     27  C   LIG    1        5.938  -5.927  -1.692  0.00  0.00    +0.015 A 
BRANCH  24  28
ATOM     28  O   LIG    1        3.940  -4.670  -5.151  0.00  0.00    -0.487 OA
BRANCH  28  29
ATOM     29  C   LIG    1        4.613  -4.523  -6.399  0.00  0.00    +0.264 C 
BRANCH  29  30
ATOM     30  C   LIG    1        3.614  -4.089  -7.460  0.00  0.00    -0.010 A 
ATOM     31  C   LIG    1        2.528  -4.912  -7.768  0.00  0.00    +0.007 A 
ATOM     32  C   LIG    1        1.612  -4.522  -8.742  0.00  0.00    +0.000 A 
ATOM     33  C   LIG    1        1.787  -3.310  -9.406  0.00  0.00    +0.000 A 
ATOM     34  C   LIG    1        2.868  -2.484  -9.105  0.00  0.00    +0.000 A 
ATOM     35  C   LIG    1        3.784  -2.874  -8.131  0.00  0.00    +0.007 A 
ENDBRANCH  29  30
ENDBRANCH  28  29
ENDBRANCH  24  28
ENDBRANCH  21  22
ENDBRANCH   5  21
TORSDOF 13
