REMARK  Name = DB18213
REMARK                            x       y       z     vdW  Elec       q    Type
REMARK                         _______ _______ _______ _____ _____    ______ ____
ROOT
ATOM      1  C   LIG    1        2.020  -0.224  -1.229  0.00  0.00    +0.004 C 
ENDROOT
BRANCH   1   2
ATOM      2  C   LIG    1        1.550  -0.053   0.230  0.00  0.00    +0.027 C 
BRANCH   2   4
ATOM      3  C   LIG    1       -0.640   1.263   0.522  0.00  0.00    -0.031 C 
ATOM      4  C   LIG    1        0.047   0.112   0.392  0.00  0.00    -0.031 C 
BRANCH   3   5
ATOM      5  C   LIG    1       -0.086   2.679   0.500  0.00  0.00    +0.027 C 
BRANCH   5   6
ATOM      6  C   LIG    1       -0.733   3.556  -0.585  0.00  0.00    +0.004 C 
BRANCH   6   7
ATOM      7  C   LIG    1       -0.150   4.979  -0.637  0.00  0.00    +0.000 C 
BRANCH   7   8
ATOM      8  C   LIG    1       -0.828   5.863  -1.702  0.00  0.00    +0.000 C 
BRANCH   8   9
ATOM      9  C   LIG    1       -0.307   7.313  -1.753  0.00  0.00    -0.000 C 
BRANCH   9  10
ATOM     10  C   LIG    1        1.148   7.446  -2.243  0.00  0.00    -0.000 C 
BRANCH  10  12
ATOM     11  C   LIG    1        3.053   9.039  -2.868  0.00  0.00    +0.004 C 
ATOM     12  C   LIG    1        1.605   8.909  -2.377  0.00  0.00    -0.003 C 
ENDBRANCH  10  12
ENDBRANCH   9  10
ENDBRANCH   8   9
ENDBRANCH   7   8
ENDBRANCH   6   7
ENDBRANCH   5   6
ENDBRANCH   3   5
ENDBRANCH   2   4
ENDBRANCH   1   2
BRANCH   1  13
ATOM     13  C   LIG    1        1.464  -1.460  -1.968  0.00  0.00    +0.000 C 
BRANCH  13  14
ATOM     14  C   LIG    1        1.885  -2.808  -1.352  0.00  0.00    +0.000 C 
BRANCH  14  15
ATOM     15  C   LIG    1        1.427  -4.017  -2.188  0.00  0.00    +0.003 C 
BRANCH  15  16
ATOM     16  C   LIG    1        1.844  -5.368  -1.571  0.00  0.00    +0.043 C 
BRANCH  16  17
ATOM     17  C   LIG    1        1.451  -6.598  -2.433  0.00  0.00    +0.222 C 
BRANCH  17  18
ATOM     18  C   LIG    1        2.103  -7.902  -1.879  0.00  0.00    +0.334 C 
ATOM     19  O   LIG    1        3.345  -8.008  -2.010  0.00  0.00    -0.248 OA
BRANCH  18  20
ATOM     20  O   LIG    1        1.390  -8.786  -1.345  0.00  0.00    -0.479 OA
ATOM     21  H   LIG    1        1.784  -9.568  -1.012  0.00  0.00    +0.295 HD
ENDBRANCH  18  20
ENDBRANCH  17  18
BRANCH  17  22
ATOM     22  O   LIG    1        0.031  -6.697  -2.492  0.00  0.00    -0.381 OA
ATOM     23  H   LIG    1       -0.224  -7.527  -2.082  0.00  0.00    +0.211 HD
ENDBRANCH  17  22
ENDBRANCH  16  17
ENDBRANCH  15  16
ENDBRANCH  14  15
ENDBRANCH  13  14
ENDBRANCH   1  13
TORSDOF 17
