REMARK  Name = DB18390
REMARK                            x       y       z     vdW  Elec       q    Type
REMARK                         _______ _______ _______ _____ _____    ______ ____
ROOT
ATOM      1  C   LIG    1       -8.187  -3.510   0.356  0.00  0.00    -0.002 C 
ATOM      2  C   LIG    1       -6.657  -3.517   0.016  0.00  0.00    -0.026 C 
ATOM      3  C   LIG    1       -6.102  -4.977  -0.014  0.00  0.00    +0.012 C 
ATOM      4  C   LIG    1       -6.250  -2.724  -1.259  0.00  0.00    +0.007 C 
ATOM      5  C   LIG    1       -4.716  -2.548  -1.377  0.00  0.00    +0.005 C 
ATOM      6  C   LIG    1       -4.061  -1.902  -0.111  0.00  0.00    +0.001 C 
ATOM      7  C   LIG    1       -2.486  -1.787  -0.179  0.00  0.00    -0.026 C 
ATOM      8  C   LIG    1       -1.817  -3.197  -0.221  0.00  0.00    +0.012 C 
ATOM      9  C   LIG    1       -2.053  -0.960  -1.432  0.00  0.00    +0.005 C 
ATOM     10  C   LIG    1       -0.552  -0.590  -1.463  0.00  0.00    -0.015 C 
ATOM     11  C   LIG    1       -0.103   0.157  -0.179  0.00  0.00    -0.072 C 
ATOM     12  C   LIG    1       -0.531  -0.649   1.069  0.00  0.00    -0.012 C 
ATOM     13  C   LIG    1       -2.051  -0.949   1.078  0.00  0.00    -0.004 C 
ATOM     14  C   LIG    1       -2.499  -1.642   2.390  0.00  0.00    +0.035 C 
ATOM     15  C   LIG    1       -4.031  -1.803   2.474  0.00  0.00    +0.118 C 
ATOM     16  C   LIG    1       -4.566  -2.566   1.224  0.00  0.00    +0.025 C 
ATOM     17  C   LIG    1       -6.119  -2.673   1.202  0.00  0.00    +0.001 C 
ATOM     18  C   LIG    1       -6.838  -3.215   2.437  0.00  0.00    +0.005 C 
ATOM     19  C   LIG    1       -8.217  -3.633   1.907  0.00  0.00    +0.004 C 
ENDROOT
BRANCH  11  20
ATOM     20  N   LIG    1        1.434   0.268  -0.146  0.00  0.00    +0.381 N 
ATOM     21  H   LIG    1        1.816  -0.651  -0.321  0.00  0.00    -0.086 HD
ATOM     22  H   LIG    1        1.710   0.510   0.795  0.00  0.00    -0.086 HD
BRANCH  20  23
ATOM     23  C   LIG    1        2.046   1.272  -1.137  0.00  0.00    -0.082 C 
BRANCH  23  24
ATOM     24  C   LIG    1        3.581   1.265  -1.025  0.00  0.00    -0.021 C 
BRANCH  24  25
ATOM     25  C   LIG    1        4.127   1.750   0.332  0.00  0.00    -0.021 C 
BRANCH  25  26
ATOM     26  C   LIG    1        5.662   1.817   0.346  0.00  0.00    -0.082 C 
BRANCH  26  27
ATOM     27  N   LIG    1        6.146   2.262   1.735  0.00  0.00    +0.383 N 
ATOM     28  H   LIG    1        5.821   1.601   2.426  0.00  0.00    -0.085 HD
ATOM     29  H   LIG    1        5.743   3.162   1.956  0.00  0.00    -0.085 HD
BRANCH  27  30
ATOM     30  C   LIG    1        7.680   2.372   1.851  0.00  0.00    -0.026 C 
BRANCH  30  31
ATOM     31  C   LIG    1        8.243   2.749   3.220  0.00  0.00    +0.024 A 
ATOM     32  N   LIG    1        7.391   2.774   4.284  0.00  0.00    -0.262 NA
ATOM     33  C   LIG    1        7.897   3.097   5.502  0.00  0.00    +0.111 A 
ATOM     34  C   LIG    1        9.244   3.401   5.706  0.00  0.00    +0.020 A 
ATOM     35  C   LIG    1       10.106   3.371   4.609  0.00  0.00    +0.003 A 
ATOM     36  C   LIG    1        9.605   3.041   3.348  0.00  0.00    +0.021 A 
ENDBRANCH  30  31
ENDBRANCH  27  30
ENDBRANCH  26  27
ENDBRANCH  25  26
ENDBRANCH  24  25
ENDBRANCH  23  24
ENDBRANCH  20  23
ENDBRANCH  11  20
BRANCH   1  37
ATOM     37  C   LIG    1       -9.127  -4.542  -0.359  0.00  0.00    -0.010 C 
ATOM     38  C   LIG    1       -9.043  -4.477  -1.902  0.00  0.00    +0.008 C 
BRANCH  37  39
ATOM     39  C   LIG    1      -10.602  -4.386   0.108  0.00  0.00    +0.014 C 
BRANCH  39  40
ATOM     40  C   LIG    1      -11.535  -5.553  -0.299  0.00  0.00    +0.121 C 
BRANCH  40  41
ATOM     41  C   LIG    1      -12.961  -5.458   0.260  0.00  0.00    +0.307 C 
ATOM     42  O   LIG    1      -13.354  -4.486   0.911  0.00  0.00    -0.251 OA
BRANCH  41  43
ATOM     43  O   LIG    1      -13.690  -6.549  -0.048  0.00  0.00    -0.468 OA
ATOM     44  C   LIG    1      -15.037  -6.664   0.387  0.00  0.00    +0.280 C 
ENDBRANCH  41  43
ENDBRANCH  40  41
ENDBRANCH  39  40
ENDBRANCH  37  39
ENDBRANCH   1  37
BRANCH  15  45
ATOM     45  O   LIG    1       -4.648  -0.537   2.642  0.00  0.00    -0.391 OA
ATOM     46  H   LIG    1       -5.592  -0.672   2.758  0.00  0.00    +0.210 HD
ENDBRANCH  15  45
TORSDOF 14
