REMARK  Name = DB18191
REMARK                            x       y       z     vdW  Elec       q    Type
REMARK                         _______ _______ _______ _____ _____    ______ ____
ROOT
ATOM      1  C   LIG    1       -2.110  -0.926   0.071  0.00  0.00    +0.131 A 
ATOM      2  N   LIG    1       -2.044   0.441  -0.110  0.00  0.00    -0.244 N 
ATOM      3  N   LIG    1       -0.780   0.891  -0.158  0.00  0.00    -0.160 NA
ATOM      4  C   LIG    1       -0.008  -0.160  -0.018  0.00  0.00    +0.149 A 
ATOM      5  C   LIG    1       -0.774  -1.333   0.167  0.00  0.00    +0.111 A 
ENDROOT
BRANCH   2   6
ATOM      6  C   LIG    1       -3.149   1.408  -0.247  0.00  0.00    +0.128 C 
ATOM      7  C   LIG    1       -3.103   2.203  -1.558  0.00  0.00    +0.135 C 
ATOM      8  N   LIG    1       -3.771   3.469  -1.224  0.00  0.00    -0.296 N 
ATOM      9  C   LIG    1       -4.122   4.362  -2.188  0.00  0.00    +0.239 C 
ATOM     10  O   LIG    1       -3.884   4.149  -3.382  0.00  0.00    -0.271 OA
ATOM     11  C   LIG    1       -3.979   3.623   0.224  0.00  0.00    +0.110 C 
ATOM     12  C   LIG    1       -3.161   2.485   0.833  0.00  0.00    +0.047 C 
BRANCH   9  13
ATOM     13  C   LIG    1       -4.799   5.574  -1.760  0.00  0.00    +0.060 C 
ATOM     14  C   LIG    1       -5.122   6.568  -2.610  0.00  0.00    +0.013 C 
ENDBRANCH   9  13
ENDBRANCH   2   6
BRANCH   5  15
ATOM     15  C   LIG    1       -0.281  -2.676   0.282  0.00  0.00    +0.248 C 
ATOM     16  O   LIG    1       -0.084  -3.206   1.373  0.00  0.00    -0.270 OA
ATOM     17  N   LIG    1       -0.066  -3.277  -0.890  0.00  0.00    -0.325 N 
ATOM     18  H   LIG    1        0.281  -4.225  -0.917  0.00  0.00    +0.145 HD
ATOM     19  H   LIG    1       -0.237  -2.785  -1.755  0.00  0.00    +0.145 HD
ENDBRANCH   5  15
BRANCH   1  21
ATOM     20  C   LIG    1       -3.559  -2.852   0.799  0.00  0.00    +0.127 C 
ATOM     21  N   LIG    1       -3.316  -1.589   0.124  0.00  0.00    -0.332 N 
ATOM     22  H   LIG    1       -4.157  -1.031   0.082  0.00  0.00    +0.147 HD
ENDBRANCH   1  21
BRANCH   4  23
ATOM     23  C   LIG    1        1.442  -0.021  -0.054  0.00  0.00    -0.039 C 
ATOM     24  C   LIG    1        2.660   0.070  -0.072  0.00  0.00    -0.059 C 
BRANCH  24  25
ATOM     25  C   LIG    1        4.113   0.154  -0.078  0.00  0.00    +0.032 A 
ATOM     26  C   LIG    1        4.759   1.100  -0.876  0.00  0.00    +0.062 A 
ATOM     27  C   LIG    1        6.161   1.184  -0.887  0.00  0.00    +0.125 A 
ATOM     28  C   LIG    1        6.895   0.306  -0.085  0.00  0.00    +0.091 A 
ATOM     29  C   LIG    1        6.259  -0.650   0.724  0.00  0.00    +0.125 A 
ATOM     30  C   LIG    1        4.865  -0.714   0.716  0.00  0.00    +0.062 A 
BRANCH  27  31
ATOM     31  O   LIG    1        6.886   2.086  -1.643  0.00  0.00    -0.495 OA
ATOM     32  C   LIG    1        6.192   3.012  -2.471  0.00  0.00    +0.277 C 
ENDBRANCH  27  31
BRANCH  29  33
ATOM     33  O   LIG    1        6.917  -1.547   1.542  0.00  0.00    -0.495 OA
ATOM     34  C   LIG    1        8.340  -1.524   1.593  0.00  0.00    +0.277 C 
ENDBRANCH  29  33
ENDBRANCH  24  25
ENDBRANCH   4  23
TORSDOF 8
