REMARK  Name = DB18465
REMARK                            x       y       z     vdW  Elec       q    Type
REMARK                         _______ _______ _______ _____ _____    ______ ____
ROOT
ATOM      1  N   LIG    1       -4.937   1.165   0.229  0.00  0.00    -0.149 NA
ATOM      2  N   LIG    1       -4.262   0.215   0.741  0.00  0.00    -0.149 NA
ENDROOT
BRANCH   1   6
ATOM      3  C   LIG    1       -9.163   1.171   0.704  0.00  0.00    +0.030 A 
ATOM      4  C   LIG    1       -8.412   0.073   1.152  0.00  0.00    +0.025 A 
ATOM      5  C   LIG    1       -7.027   0.041   1.012  0.00  0.00    +0.031 A 
ATOM      6  C   LIG    1       -6.330   1.104   0.411  0.00  0.00    +0.086 A 
ATOM      7  C   LIG    1       -7.082   2.187  -0.048  0.00  0.00    +0.031 A 
ATOM      8  C   LIG    1       -8.466   2.223   0.091  0.00  0.00    +0.025 A 
BRANCH   3   9
ATOM      9  N   LIG    1      -10.581   1.198   0.843  0.00  0.00    -0.326 N 
BRANCH   9  11
ATOM     10  C   LIG    1      -11.528   3.528   1.007  0.00  0.00    +0.024 C 
ATOM     11  C   LIG    1      -11.383   2.237   0.183  0.00  0.00    +0.102 C 
ENDBRANCH   9  11
BRANCH   9  12
ATOM     12  C   LIG    1      -11.249   0.410   1.891  0.00  0.00    +0.140 C 
BRANCH  12  13
ATOM     13  C   LIG    1      -12.214  -0.607   1.294  0.00  0.00    -0.030 A 
ATOM     14  C   LIG    1      -11.727  -1.805   0.764  0.00  0.00    +0.005 A 
ATOM     15  C   LIG    1      -12.607  -2.726   0.203  0.00  0.00    +0.000 A 
ATOM     16  C   LIG    1      -13.972  -2.446   0.172  0.00  0.00    +0.000 A 
ATOM     17  C   LIG    1      -14.464  -1.252   0.694  0.00  0.00    +0.000 A 
ATOM     18  C   LIG    1      -13.584  -0.330   1.254  0.00  0.00    +0.005 A 
ENDBRANCH  12  13
ENDBRANCH   9  12
ENDBRANCH   3   9
ENDBRANCH   1   6
BRANCH   2  19
ATOM     19  C   LIG    1       -2.868   0.281   0.563  0.00  0.00    +0.086 A 
ATOM     20  C   LIG    1       -2.194   1.236  -0.224  0.00  0.00    +0.031 A 
ATOM     21  C   LIG    1       -0.807   1.230  -0.336  0.00  0.00    +0.025 A 
ATOM     22  C   LIG    1       -0.055   0.269   0.351  0.00  0.00    +0.033 A 
ATOM     23  C   LIG    1       -0.709  -0.699   1.113  0.00  0.00    +0.025 A 
ATOM     24  C   LIG    1       -2.097  -0.685   1.216  0.00  0.00    +0.031 A 
BRANCH  22  25
ATOM     25  N   LIG    1        1.346   0.190   0.292  0.00  0.00    -0.287 N 
ATOM     26  H   LIG    1        1.728  -0.731   0.454  0.00  0.00    +0.155 HD
ATOM     27  C   LIG    1        2.228   1.202   0.143  0.00  0.00    +0.201 C 
ATOM     28  O   LIG    1        1.916   2.384  -0.013  0.00  0.00    -0.278 OA
BRANCH  27  29
ATOM     29  C   LIG    1        3.724   0.829   0.156  0.00  0.00    +0.023 C 
BRANCH  29  30
ATOM     30  N   LIG    1        4.328   0.656   1.553  0.00  0.00    +0.385 N 
BRANCH  30  31
ATOM     31  C   LIG    1        5.849   0.367   1.274  0.00  0.00    -0.078 C 
ATOM     32  C   LIG    1        6.675  -0.081   2.505  0.00  0.00    -0.016 C 
ENDBRANCH  30  31
BRANCH  30  33
ATOM     33  C   LIG    1        3.678  -0.529   2.351  0.00  0.00    -0.078 C 
ATOM     34  C   LIG    1        3.795  -1.909   1.665  0.00  0.00    -0.016 C 
ENDBRANCH  30  33
BRANCH  30  35
ATOM     35  C   LIG    1        4.248   2.017   2.345  0.00  0.00    -0.078 C 
ATOM     36  C   LIG    1        2.995   2.209   3.232  0.00  0.00    -0.016 C 
ENDBRANCH  30  35
ENDBRANCH  29  30
ENDBRANCH  27  29
ENDBRANCH  22  25
ENDBRANCH   2  19
TORSDOF 12
