REMARK  Name = DB18539
REMARK                            x       y       z     vdW  Elec       q    Type
REMARK                         _______ _______ _______ _____ _____    ______ ____
ROOT
ATOM      1  C   LIG    1       -2.406   0.811   1.563  0.00  0.00    +0.184 C 
ATOM      2  C   LIG    1       -1.791  -0.609   1.619  0.00  0.00    +0.180 C 
ATOM      3  C   LIG    1       -0.271  -0.604   1.312  0.00  0.00    +0.214 C 
ATOM      4  C   LIG    1        0.023   0.226   0.053  0.00  0.00    +0.339 C 
ATOM      5  O   LIG    1       -0.522   1.510   0.223  0.00  0.00    -0.331 OA
ATOM      6  C   LIG    1       -1.952   1.508   0.253  0.00  0.00    +0.179 C 
ENDROOT
BRANCH   2   7
ATOM      7  O   LIG    1       -2.032  -1.239   2.864  0.00  0.00    -0.386 OA
ATOM      8  H   LIG    1       -1.623  -0.716   3.556  0.00  0.00    +0.210 HD
ENDBRANCH   2   7
BRANCH   3   9
ATOM      9  O   LIG    1        0.235  -1.922   1.188  0.00  0.00    -0.383 OA
ATOM     10  H   LIG    1       -0.194  -2.473   1.847  0.00  0.00    +0.210 HD
ENDBRANCH   3   9
BRANCH   1  11
ATOM     11  O   LIG    1       -3.840   0.733   1.591  0.00  0.00    -0.340 OA
BRANCH  11  12
ATOM     12  C   LIG    1       -4.549   1.442   2.577  0.00  0.00    +0.282 C 
ATOM     13  C   LIG    1       -4.377   0.785   3.963  0.00  0.00    +0.201 C 
ATOM     14  C   LIG    1       -5.138   1.603   5.036  0.00  0.00    +0.179 C 
ATOM     15  C   LIG    1       -4.805   3.109   4.948  0.00  0.00    +0.177 C 
ATOM     16  C   LIG    1       -4.939   3.608   3.486  0.00  0.00    +0.178 C 
ATOM     17  O   LIG    1       -4.149   2.789   2.619  0.00  0.00    -0.341 OA
BRANCH  13  18
ATOM     18  O   LIG    1       -4.820  -0.561   3.946  0.00  0.00    -0.384 OA
ATOM     19  H   LIG    1       -5.770  -0.574   4.080  0.00  0.00    +0.210 HD
ENDBRANCH  13  18
BRANCH  14  20
ATOM     20  O   LIG    1       -4.907   1.093   6.339  0.00  0.00    -0.386 OA
ATOM     21  H   LIG    1       -3.973   1.185   6.544  0.00  0.00    +0.210 HD
ENDBRANCH  14  20
BRANCH  15  22
ATOM     22  O   LIG    1       -5.609   3.872   5.833  0.00  0.00    -0.386 OA
ATOM     23  H   LIG    1       -6.530   3.655   5.675  0.00  0.00    +0.210 HD
ENDBRANCH  15  22
BRANCH  16  24
ATOM     24  C   LIG    1       -4.522   5.080   3.272  0.00  0.00    +0.190 C 
BRANCH  24  25
ATOM     25  O   LIG    1       -3.178   5.316   3.645  0.00  0.00    -0.392 OA
ATOM     26  H   LIG    1       -2.982   6.247   3.515  0.00  0.00    +0.210 HD
ENDBRANCH  24  25
ENDBRANCH  16  24
ENDBRANCH  11  12
ENDBRANCH   1  11
BRANCH   4  27
ATOM     27  O   LIG    1        1.415   0.309  -0.058  0.00  0.00    -0.460 OA
BRANCH  27  28
ATOM     28  C   LIG    1        2.015   0.879  -1.168  0.00  0.00    +0.131 A 
ATOM     29  C   LIG    1        3.426   0.872  -1.218  0.00  0.00    +0.043 A 
ATOM     30  C   LIG    1        4.308   0.265  -0.112  0.00  0.00    +0.056 C 
ATOM     31  C   LIG    1        3.978   0.643   1.339  0.00  0.00    -0.019 C 
ATOM     32  C   LIG    1        4.875   0.631   2.353  0.00  0.00    -0.076 C 
ATOM     33  C   LIG    1        4.478   1.002   3.771  0.00  0.00    +0.039 C 
ATOM     34  C   LIG    1        6.359   0.326   2.120  0.00  0.00    +0.030 C 
ATOM     35  C   LIG    1        6.642  -0.196   0.692  0.00  0.00    +0.012 C 
ATOM     36  C   LIG    1        5.812   0.587  -0.351  0.00  0.00    +0.044 C 
ATOM     37  C   LIG    1        6.203   0.401  -1.850  0.00  0.00    +0.109 C 
ATOM     38  C   LIG    1        7.653   0.871  -2.098  0.00  0.00    +0.055 C 
ATOM     39  C   LIG    1        5.943  -1.033  -2.379  0.00  0.00    +0.055 C 
ATOM     40  O   LIG    1        5.417   1.351  -2.589  0.00  0.00    -0.486 OA
ATOM     41  C   LIG    1        4.047   1.350  -2.391  0.00  0.00    +0.129 A 
ATOM     42  C   LIG    1        3.309   1.899  -3.436  0.00  0.00    +0.049 A 
ATOM     43  C   LIG    1        1.921   1.952  -3.357  0.00  0.00    -0.040 A 
ATOM     44  C   LIG    1        1.281   1.434  -2.232  0.00  0.00    +0.050 A 
BRANCH  43  45
ATOM     45  C   LIG    1        1.109   2.551  -4.495  0.00  0.00    +0.035 C 
BRANCH  45  46
ATOM     46  C   LIG    1        0.673   1.496  -5.531  0.00  0.00    +0.005 C 
BRANCH  46  47
ATOM     47  C   LIG    1       -0.083   2.073  -6.744  0.00  0.00    +0.000 C 
BRANCH  47  48
ATOM     48  C   LIG    1       -1.459   2.676  -6.404  0.00  0.00    -0.003 C 
ATOM     49  C   LIG    1       -2.215   3.171  -7.645  0.00  0.00    +0.004 C 
ENDBRANCH  47  48
ENDBRANCH  46  47
ENDBRANCH  45  46
ENDBRANCH  43  45
ENDBRANCH  27  28
ENDBRANCH   4  27
BRANCH   6  50
ATOM     50  C   LIG    1       -2.436   2.966   0.122  0.00  0.00    +0.190 C 
BRANCH  50  51
ATOM     51  O   LIG    1       -2.051   3.513  -1.124  0.00  0.00    -0.392 OA
ATOM     52  H   LIG    1       -2.361   4.420  -1.168  0.00  0.00    +0.210 HD
ENDBRANCH  50  51
ENDBRANCH   6  50
TORSDOF 17
