REMARK  Name = DB18489
REMARK                            x       y       z     vdW  Elec       q    Type
REMARK                         _______ _______ _______ _____ _____    ______ ____
ROOT
ATOM      1  N   LIG    1        1.177   1.053   0.037  0.00  0.00    -0.297 N 
ATOM      2  C   LIG    1        1.914   1.779  -1.010  0.00  0.00    +0.127 C 
ATOM      3  C   LIG    1        3.425   1.466  -1.080  0.00  0.00    +0.125 C 
ATOM      4  N   LIG    1        4.138   1.588   0.201  0.00  0.00    -0.310 N 
ATOM      5  C   LIG    1        3.410   0.818   1.219  0.00  0.00    +0.125 C 
ATOM      6  C   LIG    1        1.905   1.145   1.313  0.00  0.00    +0.127 C 
ENDROOT
BRANCH   4   7
ATOM      7  C   LIG    1        5.528   1.700   0.265  0.00  0.00    +0.149 A 
ATOM      8  C   LIG    1        6.185   2.100   1.456  0.00  0.00    +0.106 A 
ATOM      9  C   LIG    1        5.850   2.510   2.777  0.00  0.00    +0.041 A 
ATOM     10  C   LIG    1        7.038   2.767   3.458  0.00  0.00    +0.005 A 
ATOM     11  C   LIG    1        8.096   2.537   2.583  0.00  0.00    +0.121 A 
ATOM     12  N   LIG    1        7.595   2.146   1.366  0.00  0.00    -0.235 N 
ATOM     13  N   LIG    1        8.335   1.862   0.280  0.00  0.00    -0.155 NA
ATOM     14  C   LIG    1        7.590   1.519  -0.797  0.00  0.00    +0.245 A 
ATOM     15  N   LIG    1        6.242   1.428  -0.865  0.00  0.00    -0.217 NA
BRANCH  10  16
ATOM     16  C   LIG    1        7.158   3.206   4.833  0.00  0.00    +0.021 A 
ATOM     17  C   LIG    1        6.274   3.983   5.565  0.00  0.00    +0.117 A 
ATOM     18  N   LIG    1        6.831   4.126   6.811  0.00  0.00    -0.269 N 
ATOM     19  N   LIG    1        8.012   3.499   6.915  0.00  0.00    -0.179 NA
ATOM     20  C   LIG    1        8.201   2.949   5.737  0.00  0.00    +0.143 A 
BRANCH  18  21
ATOM     21  C   LIG    1        6.302   4.881   7.944  0.00  0.00    +0.171 C 
BRANCH  21  22
ATOM     22  C   LIG    1        7.184   6.112   8.229  0.00  0.00    +0.179 C 
BRANCH  22  23
ATOM     23  O   LIG    1        6.658   6.864   9.300  0.00  0.00    -0.393 OA
ATOM     24  H   LIG    1        7.229   7.621   9.452  0.00  0.00    +0.209 HD
ENDBRANCH  22  23
ENDBRANCH  21  22
ENDBRANCH  18  21
ENDBRANCH  10  16
ENDBRANCH   4   7
BRANCH   1  28
ATOM     25  C   LIG    1       -2.871   0.174  -0.224  0.00  0.00    -0.018 A 
ATOM     26  C   LIG    1       -2.136   0.671  -1.315  0.00  0.00    +0.118 A 
ATOM     27  N   LIG    1       -0.815   0.974  -1.241  0.00  0.00    -0.223 NA
ATOM     28  C   LIG    1       -0.196   0.794  -0.040  0.00  0.00    +0.218 A 
ATOM     29  N   LIG    1       -0.821   0.313   1.071  0.00  0.00    -0.223 NA
ATOM     30  C   LIG    1       -2.141   0.018   0.964  0.00  0.00    +0.118 A 
BRANCH  25  32
ATOM     31  C   LIG    1       -5.143   0.939   0.483  0.00  0.00    -0.001 C 
ATOM     32  C   LIG    1       -4.379  -0.189  -0.267  0.00  0.00    -0.019 C 
BRANCH  32  33
ATOM     33  C   LIG    1       -4.627  -1.604   0.317  0.00  0.00    -0.055 A 
ATOM     34  C   LIG    1       -5.603  -1.849   1.299  0.00  0.00    +0.005 A 
ATOM     35  C   LIG    1       -5.789  -3.131   1.811  0.00  0.00    +0.038 A 
ATOM     36  C   LIG    1       -5.000  -4.182   1.351  0.00  0.00    +0.123 A 
ATOM     37  F   LIG    1       -5.182  -5.426   1.850  0.00  0.00    -0.205 F 
ATOM     38  C   LIG    1       -4.027  -3.961   0.383  0.00  0.00    +0.038 A 
ATOM     39  C   LIG    1       -3.841  -2.680  -0.129  0.00  0.00    +0.005 A 
ENDBRANCH  32  33
BRANCH  32  40
ATOM     40  N   LIG    1       -4.975  -0.172  -1.692  0.00  0.00    +0.387 N 
ATOM     41  H   LIG    1       -5.963  -0.380  -1.653  0.00  0.00    -0.088 HD
ATOM     42  H   LIG    1       -4.857   0.742  -2.105  0.00  0.00    -0.088 HD
ATOM     43  H   LIG    1       -4.516  -0.860  -2.270  0.00  0.00    -0.088 HD
ENDBRANCH  32  40
ENDBRANCH  25  32
ENDBRANCH   1  28
TORSDOF 9
