REMARK  Name = DB18110
REMARK                            x       y       z     vdW  Elec       q    Type
REMARK                         _______ _______ _______ _____ _____    ______ ____
ROOT
ATOM      1  O   LIG    1       -0.480   6.713  -3.479  0.00  0.00    -0.268 OA
ATOM      2  C   LIG    1       -0.833   6.055  -2.503  0.00  0.00    +0.254 A 
ATOM      3  C   LIG    1       -1.746   6.526  -1.455  0.00  0.00    +0.038 A 
ATOM      4  C   LIG    1       -2.312   7.947  -1.600  0.00  0.00    +0.044 C 
ATOM      5  C   LIG    1       -3.639   8.092  -0.820  0.00  0.00    +0.023 C 
ATOM      6  C   LIG    1       -3.547   7.547   0.622  0.00  0.00    +0.102 C 
ATOM      7  N   LIG    1       -2.953   6.214   0.587  0.00  0.00    -0.343 N 
ATOM      8  H   LIG    1       -3.242   5.614   1.347  0.00  0.00    +0.146 HD
ATOM      9  C   LIG    1       -2.084   5.750  -0.384  0.00  0.00    +0.045 A 
ATOM     10  C   LIG    1       -1.543   4.370  -0.248  0.00  0.00    +0.020 A 
ATOM     11  C   LIG    1       -1.846   3.506   0.812  0.00  0.00    +0.012 A 
ATOM     12  C   LIG    1       -1.302   2.221   0.849  0.00  0.00    +0.002 A 
ATOM     13  C   LIG    1       -0.445   1.785  -0.167  0.00  0.00    -0.062 A 
ATOM     14  C   LIG    1       -0.137   2.644  -1.226  0.00  0.00    +0.028 A 
ATOM     15  C   LIG    1       -0.682   3.928  -1.265  0.00  0.00    +0.051 A 
ATOM     16  N   LIG    1       -0.376   4.792  -2.326  0.00  0.00    -0.322 N 
ATOM     17  H   LIG    1        0.249   4.467  -3.048  0.00  0.00    +0.169 HD
ENDROOT
BRANCH  13  18
ATOM     18  C   LIG    1        0.123   0.374  -0.141  0.00  0.00    -0.043 C 
BRANCH  18  19
ATOM     19  N   LIG    1        1.607   0.292   0.283  0.00  0.00    +0.384 N 
ATOM     20  H   LIG    1        2.149   0.931  -0.281  0.00  0.00    -0.081 HD
ATOM     21  C   LIG    1        1.798   0.671   1.768  0.00  0.00    -0.059 C 
ATOM     22  C   LIG    1        3.296   0.535   2.129  0.00  0.00    +0.088 C 
ATOM     23  N   LIG    1        3.804  -0.842   1.942  0.00  0.00    -0.319 N 
ATOM     24  C   LIG    1        3.641  -1.160   0.509  0.00  0.00    +0.088 C 
ATOM     25  C   LIG    1        2.160  -1.133   0.066  0.00  0.00    -0.059 C 
BRANCH  23  26
ATOM     26  C   LIG    1        3.716  -1.817   2.944  0.00  0.00    +0.121 A 
ATOM     27  N   LIG    1        3.477  -1.381   4.215  0.00  0.00    -0.239 NA
ATOM     28  C   LIG    1        3.436  -2.278   5.232  0.00  0.00    +0.131 A 
ATOM     29  C   LIG    1        3.650  -3.643   5.041  0.00  0.00    +0.070 A 
ATOM     30  C   LIG    1        3.921  -4.094   3.748  0.00  0.00    +0.024 A 
ATOM     31  C   LIG    1        3.963  -3.179   2.694  0.00  0.00    +0.045 A 
BRANCH  29  32
ATOM     32  C   LIG    1        3.601  -4.571   6.161  0.00  0.00    +0.101 C 
ATOM     33  N   LIG    1        3.562  -5.308   7.052  0.00  0.00    -0.191 NA
ENDBRANCH  29  32
ENDBRANCH  23  26
ENDBRANCH  18  19
ENDBRANCH  13  18
TORSDOF 4
