REMARK  Name = DB18126
REMARK                            x       y       z     vdW  Elec       q    Type
REMARK                         _______ _______ _______ _____ _____    ______ ____
ROOT
ATOM      1  C   LIG    1       -0.170  -2.661   0.047  0.00  0.00    +0.152 C 
ATOM      2  N   LIG    1       -0.724  -1.341   0.332  0.00  0.00    -0.315 N 
ATOM      3  C   LIG    1       -2.064  -1.005   0.291  0.00  0.00    +0.073 A 
ATOM      4  C   LIG    1       -3.221  -1.711  -0.041  0.00  0.00    +0.074 A 
ATOM      5  C   LIG    1       -4.451  -1.026   0.026  0.00  0.00    +0.135 A 
ATOM      6  C   LIG    1       -4.502   0.330   0.425  0.00  0.00    +0.080 A 
ATOM      7  C   LIG    1       -3.323   1.019   0.756  0.00  0.00    +0.046 A 
ATOM      8  C   LIG    1       -2.099   0.347   0.689  0.00  0.00    +0.092 A 
ATOM      9  N   LIG    1       -0.846   0.813   0.971  0.00  0.00    -0.214 NA
ATOM     10  C   LIG    1       -0.052  -0.213   0.771  0.00  0.00    +0.201 A 
ENDROOT
BRANCH   6  11
ATOM     11  C   LIG    1       -5.823   1.065   0.516  0.00  0.00    +0.248 C 
ATOM     12  N   LIG    1       -5.814   2.341   0.080  0.00  0.00    -0.308 N 
ATOM     13  H   LIG    1       -4.931   2.736  -0.210  0.00  0.00    +0.149 HD
ATOM     14  O   LIG    1       -6.835   0.505   0.942  0.00  0.00    -0.270 OA
BRANCH  12  15
ATOM     15  C   LIG    1       -6.956   3.257   0.078  0.00  0.00    +0.073 C 
ATOM     16  C   LIG    1       -6.781   4.443  -0.906  0.00  0.00    +0.023 C 
ATOM     17  C   LIG    1       -7.955   5.441  -0.869  0.00  0.00    +0.014 C 
ATOM     18  C   LIG    1       -8.226   5.947   0.565  0.00  0.00    +0.093 C 
ATOM     19  C   LIG    1       -8.607   4.722   1.424  0.00  0.00    +0.014 C 
ATOM     20  C   LIG    1       -7.462   3.690   1.483  0.00  0.00    +0.023 C 
BRANCH  18  21
ATOM     21  C   LIG    1       -9.312   7.051   0.603  0.00  0.00    +0.393 C 
ATOM     22  F   LIG    1       -8.958   8.105  -0.132  0.00  0.00    -0.170 F 
ATOM     23  F   LIG    1       -9.515   7.488   1.846  0.00  0.00    -0.170 F 
ATOM     24  F   LIG    1      -10.483   6.616   0.136  0.00  0.00    -0.170 F 
ENDBRANCH  18  21
ENDBRANCH  12  15
ENDBRANCH   6  11
BRANCH  10  25
ATOM     25  N   LIG    1        1.312  -0.212   0.963  0.00  0.00    -0.283 N 
ATOM     26  H   LIG    1        1.861  -1.044   0.804  0.00  0.00    +0.155 HD
BRANCH  25  27
ATOM     27  C   LIG    1        2.055   0.913   1.359  0.00  0.00    +0.071 A 
ATOM     28  C   LIG    1        2.204   1.228   2.723  0.00  0.00    +0.068 A 
ATOM     29 CL   LIG    1        1.455   0.231   3.934  0.00  0.00    -0.081 Cl
ATOM     30  C   LIG    1        2.956   2.356   3.104  0.00  0.00    -0.010 A 
ATOM     31  C   LIG    1        3.528   3.165   2.119  0.00  0.00    +0.008 A 
ATOM     32  C   LIG    1        3.385   2.850   0.772  0.00  0.00    +0.022 A 
ATOM     33  C   LIG    1        2.656   1.728   0.386  0.00  0.00    +0.064 A 
ATOM     34 CL   LIG    1        2.512   1.385  -1.307  0.00  0.00    -0.082 Cl
BRANCH  30  35
ATOM     35  C   LIG    1        3.114   2.761   4.567  0.00  0.00    +0.141 C 
BRANCH  35  36
ATOM     36  N   LIG    1        4.010   1.872   5.309  0.00  0.00    -0.311 N 
ATOM     37  H   LIG    1        4.921   1.722   4.901  0.00  0.00    +0.149 HD
ATOM     38  C   LIG    1        3.757   1.319   6.512  0.00  0.00    +0.219 C 
ATOM     39  O   LIG    1        2.703   1.525   7.119  0.00  0.00    -0.275 OA
BRANCH  38  40
ATOM     40  C   LIG    1        4.839   0.397   7.151  0.00  0.00    +0.039 C 
ATOM     41  C   LIG    1        5.320   1.040   8.476  0.00  0.00    +0.020 C 
ATOM     42  C   LIG    1        4.203  -0.982   7.460  0.00  0.00    +0.020 C 
ATOM     43  C   LIG    1        6.073   0.172   6.233  0.00  0.00    +0.020 C 
ENDBRANCH  38  40
ENDBRANCH  35  36
ENDBRANCH  30  35
ENDBRANCH  25  27
ENDBRANCH  10  25
BRANCH   5  44
ATOM     44  O   LIG    1       -5.646  -1.645  -0.311  0.00  0.00    -0.486 OA
BRANCH  44  45
ATOM     45  C   LIG    1       -5.669  -3.018  -0.696  0.00  0.00    +0.300 C 
BRANCH  45  46
ATOM     46  C   LIG    1       -7.120  -3.434  -0.968  0.00  0.00    +0.378 C 
ATOM     47  F   LIG    1       -7.669  -2.761  -1.979  0.00  0.00    -0.206 F 
ATOM     48  F   LIG    1       -7.233  -4.738  -1.218  0.00  0.00    -0.206 F 
ENDBRANCH  45  46
ENDBRANCH  44  45
ENDBRANCH   5  44
TORSDOF 11
