REMARK  Name = DB18117
REMARK                            x       y       z     vdW  Elec       q    Type
REMARK                         _______ _______ _______ _____ _____    ______ ____
ROOT
ATOM      1  C   LIG    1       -1.323   3.187  -0.286  0.00  0.00    +0.193 A 
ATOM      2  N   LIG    1       -2.638   2.752  -0.376  0.00  0.00    -0.320 N 
ATOM      3  H   LIG    1       -3.375   3.400  -0.613  0.00  0.00    +0.169 HD
ATOM      4  C   LIG    1       -3.076   1.460  -0.165  0.00  0.00    +0.116 A 
ATOM      5  S   LIG    1       -4.697   1.124  -0.319  0.00  0.00    -0.030 S 
ATOM      6  C   LIG    1       -2.008   0.536   0.177  0.00  0.00    +0.139 A 
ATOM      7  N   LIG    1       -2.025  -0.758   0.441  0.00  0.00    -0.231 NA
ATOM      8  C   LIG    1       -0.763  -1.049   0.676  0.00  0.00    +0.203 A 
ATOM      9  N   LIG    1        0.112   0.020   0.591  0.00  0.00    -0.288 N 
ATOM     10  C   LIG    1       -0.722   1.061   0.248  0.00  0.00    +0.168 A 
ATOM     11  N   LIG    1       -0.367   2.365   0.021  0.00  0.00    -0.196 NA
ENDROOT
BRANCH   9  12
ATOM     12  C1* LIG    1        1.550   0.046   0.770  0.00  0.00    +0.225 C 
ATOM     13  O4* LIG    1        2.171  -0.282  -0.436  0.00  0.00    -0.348 OA
ATOM     14  C4* LIG    1        3.448  -0.875  -0.210  0.00  0.00    +0.175 C 
ATOM     15  C3* LIG    1        3.569  -0.979   1.322  0.00  0.00    +0.150 C 
ATOM     16  C2* LIG    1        2.124  -0.922   1.798  0.00  0.00    +0.088 C 
BRANCH  15  17
ATOM     17  O3* LIG    1        4.348   0.065   1.879  0.00  0.00    -0.389 OA
ATOM     18  H3* LIG    1        5.188   0.103   1.415  0.00  0.00    +0.210 HD
ENDBRANCH  15  17
BRANCH  14  19
ATOM     19  C5* LIG    1        3.524  -2.204  -0.996  0.00  0.00    +0.190 C 
BRANCH  19  20
ATOM     20  O5* LIG    1        2.622  -3.181  -0.513  0.00  0.00    -0.392 OA
ATOM     21  H5* LIG    1        2.703  -3.967  -1.058  0.00  0.00    +0.210 HD
ENDBRANCH  19  20
ENDBRANCH  14  19
ENDBRANCH   9  12
BRANCH   1  22
ATOM     22  N   LIG    1       -1.054   4.550  -0.535  0.00  0.00    -0.329 N 
ATOM     23  H   LIG    1       -1.741   5.153  -0.964  0.00  0.00    +0.145 HD
ATOM     24  H   LIG    1       -0.106   4.895  -0.580  0.00  0.00    +0.145 HD
ENDBRANCH   1  22
TORSDOF 5
