REMARK  Name = DB18017
REMARK                            x       y       z     vdW  Elec       q    Type
REMARK                         _______ _______ _______ _____ _____    ______ ____
ROOT
ATOM      1  C   LIG    1        1.564  -0.107  -0.089  0.00  0.00    +0.020 C 
ENDROOT
BRANCH   1   2
ATOM      2  C   LIG    1        0.027   0.007  -0.184  0.00  0.00    -0.012 C 
BRANCH   2   4
ATOM      3  C   LIG    1       -2.083   1.526   0.009  0.00  0.00    +0.101 C 
ATOM      4  C   LIG    1       -0.531   1.449  -0.064  0.00  0.00    -0.043 C 
ATOM      5  N   LIG    1       -0.022   2.251  -1.285  0.00  0.00    +0.383 N 
ATOM      6  H   LIG    1        0.988   2.253  -1.278  0.00  0.00    -0.085 HD
ATOM      7  H   LIG    1       -0.305   1.779  -2.133  0.00  0.00    -0.085 HD
ATOM      8  C   LIG    1       -0.521   3.707  -1.314  0.00  0.00    -0.082 C 
ATOM      9  C   LIG    1       -2.058   3.727  -1.284  0.00  0.00    -0.017 C 
ATOM     10  C   LIG    1       -2.627   2.969  -0.072  0.00  0.00    +0.028 C 
BRANCH   3  11
ATOM     11  O   LIG    1       -2.568   0.904   1.183  0.00  0.00    -0.393 OA
ATOM     12  H   LIG    1       -2.451  -0.045   1.101  0.00  0.00    +0.210 HD
ENDBRANCH   3  11
ENDBRANCH   2   4
ENDBRANCH   1   2
BRANCH   1  13
ATOM     13  C   LIG    1        2.052  -1.568  -0.144  0.00  0.00    +0.123 C 
BRANCH  13  14
ATOM     14  N   LIG    1        3.503  -1.638  -0.029  0.00  0.00    -0.330 N 
ATOM     15  C   LIG    1        4.268  -1.470   1.109  0.00  0.00    +0.070 A 
ATOM     16  C   LIG    1        3.955  -1.215   2.449  0.00  0.00    +0.029 A 
ATOM     17  C   LIG    1        5.029  -1.111   3.334  0.00  0.00    +0.023 A 
ATOM     18  C   LIG    1        6.356  -1.252   2.920  0.00  0.00    +0.061 A 
ATOM     19 CL   LIG    1        7.605  -1.104   4.108  0.00  0.00    -0.082 Cl
ATOM     20  C   LIG    1        6.668  -1.505   1.578  0.00  0.00    +0.087 A 
ATOM     21 CL   LIG    1        8.308  -1.680   1.047  0.00  0.00    -0.080 Cl
ATOM     22  C   LIG    1        5.608  -1.615   0.660  0.00  0.00    +0.109 A 
ATOM     23  N   LIG    1        5.648  -1.853  -0.690  0.00  0.00    -0.234 NA
ATOM     24  C   LIG    1        4.394  -1.855  -1.057  0.00  0.00    +0.200 A 
ENDBRANCH  13  14
ENDBRANCH   1  13
TORSDOF 5
