REMARK  Name = DB18488
REMARK                            x       y       z     vdW  Elec       q    Type
REMARK                         _______ _______ _______ _____ _____    ______ ____
ROOT
ATOM      1  N   LIG    1       -0.362  -2.043   0.144  0.00  0.00    -0.292 N 
ATOM      2  H   LIG    1        0.185  -2.891   0.089  0.00  0.00    +0.151 HD
ATOM      3  C   LIG    1        0.271  -0.918   0.537  0.00  0.00    +0.312 C 
ATOM      4  N   LIG    1        1.609  -1.034   0.691  0.00  0.00    -0.187 N 
ATOM      5  C   LIG    1        2.559  -2.058   0.525  0.00  0.00    +0.237 C 
ATOM      6  O   LIG    1        2.478  -3.233   0.167  0.00  0.00    -0.274 OA
ATOM      7  C   LIG    1        3.724  -1.123   0.958  0.00  0.00    +0.101 C 
ATOM      8  C   LIG    1        2.619  -0.018   1.098  0.00  0.00    +0.288 C 
ATOM      9  O   LIG    1       -0.318   0.142   0.751  0.00  0.00    -0.252 OA
ENDROOT
BRANCH   7  10
ATOM     10  C   LIG    1        4.369  -1.594   2.297  0.00  0.00    +0.018 C 
ATOM     11  C   LIG    1        5.217  -2.879   2.234  0.00  0.00    +0.005 C 
ENDBRANCH   7  10
BRANCH   7  12
ATOM     12  C   LIG    1        4.775  -0.908  -0.177  0.00  0.00    +0.018 C 
ATOM     13  C   LIG    1        4.260  -0.440  -1.555  0.00  0.00    +0.005 C 
ENDBRANCH   7  12
BRANCH   1  14
ATOM     14  C   LIG    1       -1.810  -2.211  -0.053  0.00  0.00    +0.105 C 
BRANCH  14  15
ATOM     15  C   LIG    1       -2.431  -1.284  -1.107  0.00  0.00    -0.023 A 
ATOM     16  C   LIG    1       -3.724  -0.773  -0.895  0.00  0.00    +0.055 A 
ATOM     17  C   LIG    1       -4.256   0.079  -1.857  0.00  0.00    +0.167 A 
ATOM     18  O   LIG    1       -5.479   0.670  -1.889  0.00  0.00    -0.453 OA
ATOM     19  C   LIG    1       -5.437   1.565  -2.969  0.00  0.00    +0.466 C 
ATOM     20  O   LIG    1       -4.328   1.229  -3.759  0.00  0.00    -0.453 OA
ATOM     21  C   LIG    1       -3.562   0.417  -2.984  0.00  0.00    +0.166 A 
ATOM     22  C   LIG    1       -2.285  -0.075  -3.233  0.00  0.00    +0.050 A 
ATOM     23  C   LIG    1       -1.722  -0.928  -2.276  0.00  0.00    +0.009 A 
ENDBRANCH  14  15
BRANCH  14  24
ATOM     24  C   LIG    1       -2.179  -3.686  -0.344  0.00  0.00    +0.027 C 
BRANCH  24  26
ATOM     25  C   LIG    1       -2.077  -6.143   0.384  0.00  0.00    +0.004 C 
ATOM     26  C   LIG    1       -1.625  -4.706   0.674  0.00  0.00    -0.001 C 
ENDBRANCH  24  26
ENDBRANCH  14  24
ENDBRANCH   1  14
BRANCH   8  27
ATOM     27  O   LIG    1        2.404   0.490   2.387  0.00  0.00    -0.469 OA
BRANCH  27  28
ATOM     28  C   LIG    1        3.154   1.556   2.849  0.00  0.00    +0.123 A 
ATOM     29  C   LIG    1        4.238   2.120   2.161  0.00  0.00    +0.046 A 
ATOM     30  C   LIG    1        4.943   3.185   2.714  0.00  0.00    +0.016 A 
ATOM     31  C   LIG    1        4.574   3.716   3.956  0.00  0.00    +0.037 A 
ATOM     32  C   LIG    1        3.505   3.133   4.650  0.00  0.00    +0.016 A 
ATOM     33  C   LIG    1        2.801   2.068   4.096  0.00  0.00    +0.046 A 
BRANCH  31  34
ATOM     34  C   LIG    1        5.380   4.853   4.553  0.00  0.00    +0.246 C 
ATOM     35  N   LIG    1        4.753   5.803   5.302  0.00  0.00    -0.301 N 
ATOM     36  C   LIG    1        3.352   6.213   5.060  0.00  0.00    +0.089 C 
ATOM     37  C   LIG    1        2.644   6.362   6.424  0.00  0.00    -0.060 C 
ATOM     38  N   LIG    1        3.397   7.404   7.276  0.00  0.00    +0.380 N 
ATOM     39  H   LIG    1        3.397   8.284   6.779  0.00  0.00    -0.082 HD
ATOM     40  C   LIG    1        2.704   7.590   8.640  0.00  0.00    -0.096 C 
ATOM     41  C   LIG    1        4.860   6.952   7.472  0.00  0.00    -0.060 C 
ATOM     42  C   LIG    1        5.550   6.760   6.101  0.00  0.00    +0.089 C 
ATOM     43  O   LIG    1        6.599   4.867   4.359  0.00  0.00    -0.270 OA
ENDBRANCH  31  34
ENDBRANCH  27  28
ENDBRANCH   8  27
TORSDOF 9
