REMARK  Name = DB18018
REMARK                            x       y       z     vdW  Elec       q    Type
REMARK                         _______ _______ _______ _____ _____    ______ ____
ROOT
ATOM      1  N   LIG    1        1.491  -0.024  -0.052  0.00  0.00    -0.300 N 
ATOM      2  C   LIG    1        2.330   0.829   0.643  0.00  0.00    +0.168 A 
ATOM      3  N   LIG    1        2.033   1.798   1.517  0.00  0.00    -0.198 NA
ATOM      4  C   LIG    1        3.126   2.443   2.010  0.00  0.00    +0.226 A 
ATOM      5 CL   LIG    1        2.831   3.705   3.147  0.00  0.00    -0.041 Cl
ATOM      6  N   LIG    1        4.427   2.192   1.700  0.00  0.00    -0.200 NA
ATOM      7  C   LIG    1        4.697   1.198   0.806  0.00  0.00    +0.151 A 
ATOM      8  C   LIG    1        3.638   0.469   0.236  0.00  0.00    +0.148 A 
ATOM      9  N   LIG    1        3.606  -0.560  -0.669  0.00  0.00    -0.231 NA
ATOM     10  C   LIG    1        2.329  -0.818  -0.809  0.00  0.00    +0.202 A 
ENDROOT
BRANCH   1  13
ATOM     11  C   LIG    1       -2.011  -0.055   1.440  0.00  0.00    +0.156 C 
ATOM     12  C   LIG    1       -0.519  -0.463   1.397  0.00  0.00    +0.177 C 
ATOM     13  C   LIG    1        0.029  -0.102  -0.003  0.00  0.00    +0.179 C 
ATOM     14  S   LIG    1       -0.846   1.401  -0.518  0.00  0.00    -0.130 S 
ATOM     15  C   LIG    1       -2.086   1.346   0.807  0.00  0.00    +0.105 C 
BRANCH  11  16
ATOM     16  O   LIG    1       -2.789  -0.941   0.644  0.00  0.00    -0.388 OA
ATOM     17  H   LIG    1       -3.707  -0.661   0.684  0.00  0.00    +0.210 HD
ENDBRANCH  11  16
BRANCH  12  18
ATOM     18  O   LIG    1       -0.361  -1.853   1.630  0.00  0.00    -0.386 OA
ATOM     19  H   LIG    1       -0.892  -2.330   0.987  0.00  0.00    +0.210 HD
ENDBRANCH  12  18
ENDBRANCH   1  13
BRANCH   7  20
ATOM     20  N   LIG    1        6.025   0.897   0.461  0.00  0.00    -0.323 N 
ATOM     21  H   LIG    1        6.202   0.203  -0.251  0.00  0.00    +0.148 HD
BRANCH  20  22
ATOM     22  C   LIG    1        7.143   1.692   0.954  0.00  0.00    +0.138 C 
BRANCH  22  23
ATOM     23  C   LIG    1        8.460   1.042   0.569  0.00  0.00    -0.029 A 
ATOM     24  C   LIG    1        9.065   1.344  -0.655  0.00  0.00    +0.025 A 
ATOM     25  C   LIG    1       10.265   0.729  -1.018  0.00  0.00    +0.041 A 
ATOM     26 CL   LIG    1       11.010   1.110  -2.527  0.00  0.00    -0.084 Cl
ATOM     27  C   LIG    1       10.860  -0.197  -0.159  0.00  0.00    +0.020 A 
ATOM     28  C   LIG    1       10.255  -0.509   1.059  0.00  0.00    +0.002 A 
ATOM     29  C   LIG    1        9.056   0.105   1.420  0.00  0.00    +0.005 A 
ENDBRANCH  22  23
ENDBRANCH  20  22
ENDBRANCH   7  20
TORSDOF 6
