REMARK  Name = DB18097
REMARK                            x       y       z     vdW  Elec       q    Type
REMARK                         _______ _______ _______ _____ _____    ______ ____
ROOT
ATOM      1  C   LIG    1        1.440   0.154  -0.100  0.00  0.00    +0.015 C 
ATOM      2  C   LIG    1        1.921   1.090  -1.234  0.00  0.00    +0.016 C 
ATOM      3  C   LIG    1        3.476   1.073  -1.277  0.00  0.00    +0.024 C 
ATOM      4  C   LIG    1        4.111   1.593   0.074  0.00  0.00    -0.008 C 
ATOM      5  C   LIG    1        3.866   3.108   0.305  0.00  0.00    +0.016 C 
ATOM      6  C   LIG    1        3.482   0.778   1.264  0.00  0.00    +0.012 C 
ATOM      7  C   LIG    1        1.934   0.723   1.249  0.00  0.00    +0.009 C 
ENDROOT
BRANCH   1   9
ATOM      8  C   LIG    1       -0.466  -1.393   0.710  0.00  0.00    +0.039 C 
ATOM      9  C   LIG    1       -0.060  -0.172  -0.102  0.00  0.00    -0.077 C 
ATOM     10  C   LIG    1       -0.981   0.544  -0.776  0.00  0.00    +0.007 C 
ENDBRANCH   1   9
BRANCH   3  11
ATOM     11  C   LIG    1        4.010   1.717  -2.569  0.00  0.00    -0.076 C 
ATOM     12  C   LIG    1        3.572   2.902  -3.035  0.00  0.00    +0.007 C 
ATOM     13  C   LIG    1        5.064   0.921  -3.326  0.00  0.00    +0.039 C 
ENDBRANCH   3  11
BRANCH   4  14
ATOM     14  C   LIG    1        5.638   1.416   0.025  0.00  0.00    -0.027 C 
ATOM     15  C   LIG    1        6.419   0.666   0.824  0.00  0.00    +0.004 C 
ENDBRANCH   4  14
TORSDOF 3
