REMARK  Name = DB18095
REMARK                            x       y       z     vdW  Elec       q    Type
REMARK                         _______ _______ _______ _____ _____    ______ ____
ROOT
ATOM      1  N   LIG    1        1.400   0.309  -0.181  0.00  0.00    -0.337 N 
ATOM      2  C   LIG    1        2.161   1.468  -0.222  0.00  0.00    +0.120 A 
ATOM      3  C   LIG    1        1.741   2.858   0.012  0.00  0.00    +0.289 A 
ATOM      4  O   LIG    1        0.639   3.308   0.318  0.00  0.00    -0.264 OA
ATOM      5  N   LIG    1        2.821   3.684  -0.158  0.00  0.00    -0.240 N 
ATOM      6  H   LIG    1        2.653   4.670  -0.022  0.00  0.00    +0.192 HD
ATOM      7  N   LIG    1        4.133   3.389  -0.502  0.00  0.00    -0.156 NA
ATOM      8  C   LIG    1        4.457   2.166  -0.689  0.00  0.00    +0.146 A 
ATOM      9  C   LIG    1        3.479   1.079  -0.534  0.00  0.00    +0.054 A 
ATOM     10  C   LIG    1        3.554  -0.322  -0.634  0.00  0.00    +0.011 A 
ATOM     11  C   LIG    1        2.251  -0.750  -0.426  0.00  0.00    +0.096 A 
ENDROOT
BRANCH   1  15
ATOM     12  C   LIG    1       -2.868  -1.978  -0.810  0.00  0.00    +0.291 C 
ATOM     13  N   LIG    1       -1.886  -1.280  -0.178  0.00  0.00    -0.289 N 
ATOM     14  C   LIG    1       -0.791  -0.666  -0.941  0.00  0.00    +0.133 C 
ATOM     15  C   LIG    1       -0.039   0.173   0.102  0.00  0.00    +0.106 C 
ATOM     16  C   LIG    1       -0.326  -0.525   1.425  0.00  0.00    +0.045 C 
ATOM     17  C   LIG    1       -1.753  -1.048   1.272  0.00  0.00    +0.111 C 
ATOM     18  O   LIG    1       -2.909  -2.141  -2.030  0.00  0.00    -0.260 OA
BRANCH  12  21
ATOM     19  C   LIG    1       -5.807  -3.748   1.526  0.00  0.00    +0.106 C 
ATOM     20  C   LIG    1       -4.776  -3.091   0.711  0.00  0.00    -0.096 C 
ATOM     21  C   LIG    1       -3.910  -2.546   0.043  0.00  0.00    -0.008 C 
ENDBRANCH  12  21
ENDBRANCH   1  15
BRANCH  10  22
ATOM     22  C   LIG    1        4.721  -1.211  -0.897  0.00  0.00    -0.016 A 
ATOM     23  C   LIG    1        5.886  -1.092  -0.138  0.00  0.00    +0.012 A 
ATOM     24  C   LIG    1        6.970  -1.930  -0.384  0.00  0.00    +0.047 A 
ATOM     25  C   LIG    1        6.894  -2.905  -1.391  0.00  0.00    +0.129 A 
ATOM     26  C   LIG    1        5.721  -3.028  -2.136  0.00  0.00    +0.047 A 
ATOM     27  C   LIG    1        4.638  -2.188  -1.891  0.00  0.00    +0.012 A 
BRANCH  25  28
ATOM     28  O   LIG    1        7.921  -3.778  -1.696  0.00  0.00    -0.450 OA
BRANCH  28  29
ATOM     29  C   LIG    1        9.150  -3.665  -1.089  0.00  0.00    +0.198 A 
ATOM     30  C   LIG    1       10.145  -2.862  -1.660  0.00  0.00    +0.168 A 
ATOM     31  F   LIG    1        9.901  -2.187  -2.807  0.00  0.00    -0.202 F 
ATOM     32  C   LIG    1       11.393  -2.753  -1.046  0.00  0.00    +0.042 A 
ATOM     33  C   LIG    1       11.655  -3.447   0.136  0.00  0.00    +0.006 A 
ATOM     34  C   LIG    1       10.669  -4.253   0.704  0.00  0.00    +0.042 A 
ATOM     35  C   LIG    1        9.419  -4.366   0.093  0.00  0.00    +0.168 A 
ATOM     36  F   LIG    1        8.468  -5.150   0.651  0.00  0.00    -0.202 F 
ENDBRANCH  28  29
ENDBRANCH  25  28
ENDBRANCH  10  22
BRANCH   8  37
ATOM     37  N   LIG    1        5.750   1.898  -1.070  0.00  0.00    -0.341 N 
ATOM     38  H   LIG    1        6.415   2.648  -1.191  0.00  0.00    +0.144 HD
ATOM     39  H   LIG    1        6.046   0.949  -1.250  0.00  0.00    +0.144 HD
ENDBRANCH   8  37
TORSDOF 6
