REMARK  Name = DB18405
REMARK                            x       y       z     vdW  Elec       q    Type
REMARK                         _______ _______ _______ _____ _____    ______ ____
ROOT
ATOM      1  N   LIG    1        0.004   0.132  -0.000  0.00  0.00    -0.343 N 
ATOM      2  H   LIG    1       -0.508  -0.738   0.001  0.00  0.00    +0.146 HD
ENDROOT
BRANCH   1   7
ATOM      3  C   LIG    1       -0.819   3.811  -0.000  0.00  0.00    +0.102 A 
ATOM      4  C   LIG    1       -2.237   3.698   0.000  0.00  0.00    +0.131 A 
ATOM      5  C   LIG    1       -2.853   2.445   0.000  0.00  0.00    +0.048 A 
ATOM      6  C   LIG    1       -2.097   1.279  -0.000  0.00  0.00    +0.026 A 
ATOM      7  C   LIG    1       -0.708   1.344  -0.000  0.00  0.00    +0.028 A 
ATOM      8  C   LIG    1       -0.087   2.600  -0.000  0.00  0.00    +0.041 A 
BRANCH   3   9
ATOM      9  C   LIG    1       -0.072   5.142  -0.000  0.00  0.00    +0.340 C 
ATOM     10  O   LIG    1       -0.709   6.221   0.000  0.00  0.00    -0.245 OA
BRANCH   9  11
ATOM     11  O   LIG    1        1.183   5.131  -0.000  0.00  0.00    -0.477 OA
ATOM     12  H   LIG    1        1.656   5.621   0.644  0.00  0.00    +0.295 HD
ENDBRANCH   9  11
ENDBRANCH   3   9
BRANCH   4  13
ATOM     13  O   LIG    1       -3.092   4.773   0.000  0.00  0.00    -0.506 OA
ATOM     14  H   LIG    1       -4.017   4.516   0.000  0.00  0.00    +0.292 HD
ENDBRANCH   4  13
ENDBRANCH   1   7
BRANCH   1  15
ATOM     15  C   LIG    1        1.460   0.081   0.000  0.00  0.00    +0.106 C 
BRANCH  15  16
ATOM     16  C   LIG    1        1.990  -1.361  -0.000  0.00  0.00    +0.054 C 
BRANCH  16  17
ATOM     17  C   LIG    1        3.510  -1.421   0.000  0.00  0.00    -0.046 A 
ATOM     18  C   LIG    1        4.208  -1.445  -1.209  0.00  0.00    +0.004 A 
ATOM     19  C   LIG    1        5.599  -1.498  -1.209  0.00  0.00    +0.012 A 
ATOM     20  C   LIG    1        6.303  -1.526   0.000  0.00  0.00    +0.055 A 
ATOM     21  C   LIG    1        5.599  -1.498   1.209  0.00  0.00    +0.012 A 
ATOM     22  C   LIG    1        4.208  -1.445   1.209  0.00  0.00    +0.004 A 
BRANCH  20  23
ATOM     23  C   LIG    1        7.831  -1.589   0.000  0.00  0.00    +0.417 C 
ATOM     24  F   LIG    1        8.293  -2.224   1.079  0.00  0.00    -0.166 F 
ATOM     25  F   LIG    1        8.317  -0.348   0.000  0.00  0.00    -0.166 F 
ATOM     26  F   LIG    1        8.293  -2.224  -1.079  0.00  0.00    -0.166 F 
ENDBRANCH  20  23
ENDBRANCH  16  17
ENDBRANCH  15  16
ENDBRANCH   1  15
TORSDOF 8
