REMARK  Name = DB18019
REMARK                            x       y       z     vdW  Elec       q    Type
REMARK                         _______ _______ _______ _____ _____    ______ ____
ROOT
ATOM      1  C   LIG    1       -1.828  -2.775   2.160  0.00  0.00    -0.013 C 
ATOM      2  C   LIG    1       -0.816  -2.180   1.155  0.00  0.00    -0.070 C 
ATOM      3  N   LIG    1       -0.989  -2.881  -0.231  0.00  0.00    +0.384 N 
ATOM      4  H   LIG    1       -1.959  -2.777  -0.492  0.00  0.00    -0.081 HD
ATOM      5  C   LIG    1       -0.158  -2.206  -1.357  0.00  0.00    -0.077 C 
ATOM      6  C   LIG    1       -0.450  -0.693  -1.414  0.00  0.00    -0.000 C 
ATOM      7  C   LIG    1       -0.133   0.035  -0.071  0.00  0.00    +0.070 C 
ATOM      8  C   LIG    1       -1.066  -0.657   0.985  0.00  0.00    +0.003 C 
ENDROOT
BRANCH   7   9
ATOM      9  C   LIG    1       -0.566   1.537  -0.314  0.00  0.00    +0.311 C 
ATOM     10  O   LIG    1        0.221   2.273  -0.956  0.00  0.00    -0.250 OA
BRANCH   9  11
ATOM     11  O   LIG    1       -1.675   1.949   0.102  0.00  0.00    -0.480 OA
ATOM     12  H   LIG    1       -1.929   2.839  -0.043  0.00  0.00    +0.295 HD
ENDBRANCH   9  11
ENDBRANCH   7   9
BRANCH   3  13
ATOM     13  C   LIG    1       -0.646  -4.395  -0.188  0.00  0.00    -0.040 C 
BRANCH  13  14
ATOM     14  C   LIG    1       -0.984  -5.165  -1.460  0.00  0.00    -0.027 A 
ATOM     15  C   LIG    1       -2.308  -5.529  -1.742  0.00  0.00    +0.143 A 
ATOM     16  F   LIG    1       -3.301  -5.196  -0.883  0.00  0.00    -0.204 F 
ATOM     17  C   LIG    1       -2.606  -6.231  -2.914  0.00  0.00    +0.076 A 
ATOM     18 CL   LIG    1       -4.235  -6.682  -3.276  0.00  0.00    -0.081 Cl
ATOM     19  C   LIG    1       -1.585  -6.572  -3.803  0.00  0.00    +0.023 A 
ATOM     20  C   LIG    1       -0.267  -6.213  -3.524  0.00  0.00    +0.002 A 
ATOM     21  C   LIG    1        0.033  -5.512  -2.356  0.00  0.00    +0.004 A 
ENDBRANCH  13  14
ENDBRANCH   3  13
BRANCH   7  22
ATOM     22  C   LIG    1        1.400  -0.102   0.293  0.00  0.00    +0.076 C 
BRANCH  22  23
ATOM     23  C   LIG    1        1.975   0.660   1.497  0.00  0.00    +0.079 A 
ATOM     24  C   LIG    1        3.358   0.694   1.704  0.00  0.00    +0.145 A 
ATOM     25  F   LIG    1        4.206   0.063   0.860  0.00  0.00    -0.204 F 
ATOM     26  C   LIG    1        3.857   1.395   2.802  0.00  0.00    +0.043 A 
ATOM     27  C   LIG    1        2.974   2.041   3.667  0.00  0.00    +0.046 A 
ATOM     28  C   LIG    1        1.595   1.959   3.417  0.00  0.00    +0.124 A 
ATOM     29  N   LIG    1        1.111   1.280   2.346  0.00  0.00    -0.234 NA
BRANCH  28  30
ATOM     30  N   LIG    1        0.612   2.588   4.201  0.00  0.00    -0.283 N 
ATOM     31  H   LIG    1       -0.295   2.538   3.760  0.00  0.00    +0.155 HD
BRANCH  30  32
ATOM     32  C   LIG    1        0.703   3.208   5.428  0.00  0.00    +0.146 A 
ATOM     33  N   LIG    1        1.690   3.020   6.280  0.00  0.00    -0.158 NA
ATOM     34  N   LIG    1        1.397   3.779   7.341  0.00  0.00    -0.280 N 
ATOM     35  H   LIG    1        2.003   3.821   8.148  0.00  0.00    +0.189 HD
ATOM     36  C   LIG    1        0.220   4.465   7.222  0.00  0.00    +0.035 A 
ATOM     37  C   LIG    1       -0.314   5.379   8.297  0.00  0.00    +0.065 C 
ATOM     38  C   LIG    1       -0.243   4.089   5.974  0.00  0.00    +0.068 A 
ENDBRANCH  30  32
ENDBRANCH  28  30
ENDBRANCH  22  23
ENDBRANCH   7  22
TORSDOF 8
