REMARK  Name = DB18050
REMARK                            x       y       z     vdW  Elec       q    Type
REMARK                         _______ _______ _______ _____ _____    ______ ____
ROOT
ATOM      1  C   LIG    1        0.257   1.823   1.077  0.00  0.00    +0.001 A 
ATOM      2  C   LIG    1        1.159   2.115   0.056  0.00  0.00    +0.010 A 
ATOM      3  C   LIG    1        2.393   1.424  -0.020  0.00  0.00    +0.000 A 
ATOM      4  C   LIG    1        3.351   1.675  -1.033  0.00  0.00    +0.011 A 
ATOM      5  C   LIG    1        4.543   0.953  -1.041  0.00  0.00    +0.020 A 
ATOM      6  C   LIG    1        4.759   0.001  -0.049  0.00  0.00    +0.111 A 
ATOM      7  N   LIG    1        3.869  -0.269   0.937  0.00  0.00    -0.255 NA
ATOM      8  C   LIG    1        2.698   0.428   0.960  0.00  0.00    +0.071 A 
ATOM      9  C   LIG    1        1.758   0.156   1.984  0.00  0.00    +0.028 A 
ATOM     10  C   LIG    1        0.553   0.854   2.031  0.00  0.00    +0.002 A 
ENDROOT
TORSDOF 0
