REMARK  Name = DB18315
REMARK                            x       y       z     vdW  Elec       q    Type
REMARK                         _______ _______ _______ _____ _____    ______ ____
ROOT
ATOM      1  C   LIG    1        1.570   0.014   0.159  0.00  0.00    +0.089 A 
ATOM      2  C   LIG    1        2.332  -0.075   1.343  0.00  0.00    +0.159 A 
ATOM      3  N   LIG    1        1.971  -0.125   2.653  0.00  0.00    -0.234 NA
ATOM      4  C   LIG    1        3.113  -0.196   3.305  0.00  0.00    +0.131 A 
ATOM      5  C   LIG    1        4.230  -0.195   2.474  0.00  0.00    +0.112 A 
ATOM      6  N   LIG    1        3.730  -0.115   1.200  0.00  0.00    -0.303 N 
ATOM      7  C   LIG    1        4.335  -0.075  -0.028  0.00  0.00    +0.124 A 
ATOM      8  C   LIG    1        3.523   0.009  -1.163  0.00  0.00    +0.125 A 
ATOM      9  N   LIG    1        2.167   0.054  -1.064  0.00  0.00    -0.243 NA
ENDROOT
BRANCH   8  10
ATOM     10  C   LIG    1        4.101   0.051  -2.549  0.00  0.00    +0.182 A 
ATOM     11  N   LIG    1        3.377   0.132  -3.639  0.00  0.00    -0.127 NA
ATOM     12  N   LIG    1        4.281   0.136  -4.672  0.00  0.00    -0.125 NA
ATOM     13  C   LIG    1        5.449   0.055  -4.090  0.00  0.00    +0.235 A 
ATOM     14  N   LIG    1        5.393   0.004  -2.781  0.00  0.00    -0.317 N 
ATOM     15  H   LIG    1        6.133  -0.055  -2.134  0.00  0.00    +0.169 HD
BRANCH  13  16
ATOM     16  C   LIG    1        6.766   0.031  -4.850  0.00  0.00    +0.452 C 
ATOM     17  F   LIG    1        7.473  -1.058  -4.549  0.00  0.00    -0.163 F 
ATOM     18  F   LIG    1        7.511   1.094  -4.546  0.00  0.00    -0.163 F 
ATOM     19  F   LIG    1        6.585   0.035  -6.172  0.00  0.00    -0.163 F 
ENDBRANCH  13  16
ENDBRANCH   8  10
BRANCH   1  20
ATOM     20  C   LIG    1        0.048   0.074   0.139  0.00  0.00    +0.097 C 
BRANCH  20  23
ATOM     21  F   LIG    1       -0.160   1.475  -2.372  0.00  0.00    -0.205 F 
ATOM     22  C   LIG    1       -0.582   2.112  -1.256  0.00  0.00    +0.127 A 
ATOM     23  C   LIG    1       -0.507   1.486  -0.004  0.00  0.00    -0.006 A 
ATOM     24  C   LIG    1       -0.969   2.162   1.131  0.00  0.00    +0.007 A 
ATOM     25  C   LIG    1       -1.488   3.452   1.021  0.00  0.00    +0.000 A 
ATOM     26  C   LIG    1       -1.553   4.074  -0.226  0.00  0.00    +0.003 A 
ATOM     27  C   LIG    1       -1.101   3.404  -1.362  0.00  0.00    +0.038 A 
ENDBRANCH  20  23
ENDBRANCH   1  20
TORSDOF 4
