REMARK  Name = DB18564
REMARK                            x       y       z     vdW  Elec       q    Type
REMARK                         _______ _______ _______ _____ _____    ______ ____
ROOT
ATOM      1  CA  SER A  4        3.018   2.348   0.302  0.00  0.00    +0.184 C 
ENDROOT
BRANCH   1   3
ATOM      2  C   VAL A  3        1.267   0.770  -0.491  0.00  0.00    +0.234 C 
ATOM      3  N   SER A  4        1.634   1.917   0.102  0.00  0.00    -0.301 N 
ATOM      4  H   SER A  4        0.926   2.529   0.481  0.00  0.00    +0.150 HD
ATOM      5  O   VAL A  3        2.050  -0.048  -0.977  0.00  0.00    -0.274 OA
BRANCH   2   6
ATOM      6  CA  VAL A  3       -0.250   0.493  -0.537  0.00  0.00    +0.161 C 
BRANCH   6   8
ATOM      7  C   ALA A  2       -0.787   1.209  -2.866  0.00  0.00    +0.234 C 
ATOM      8  N   VAL A  3       -0.702   0.265  -1.911  0.00  0.00    -0.302 N 
ATOM      9  H   VAL A  3       -0.963  -0.685  -2.133  0.00  0.00    +0.150 HD
ATOM     10  O   ALA A  2       -0.492   2.393  -2.697  0.00  0.00    -0.274 OA
BRANCH   7  11
ATOM     11  CA  ALA A  2       -1.314   0.730  -4.228  0.00  0.00    +0.156 C 
ATOM     12  CB  ALA A  2       -1.391   1.844  -5.290  0.00  0.00    +0.038 C 
BRANCH  11  14
ATOM     13  C   GLU A  1       -3.115  -0.891  -4.784  0.00  0.00    +0.234 C 
ATOM     14  N   ALA A  2       -2.631   0.124  -4.052  0.00  0.00    -0.303 N 
ATOM     15  H   ALA A  2       -3.190   0.500  -3.299  0.00  0.00    +0.149 HD
ATOM     16  O   GLU A  1       -2.515  -1.428  -5.716  0.00  0.00    -0.274 OA
BRANCH  13  17
ATOM     17  CA  GLU A  1       -4.499  -1.406  -4.353  0.00  0.00    +0.159 C 
BRANCH  17  19
ATOM     18  C   UNK A  0       -5.803  -1.346  -6.480  0.00  0.00    +0.214 C 
ATOM     19  N   GLU A  1       -5.236  -2.018  -5.462  0.00  0.00    -0.304 N 
ATOM     20  H   GLU A  1       -5.267  -3.027  -5.460  0.00  0.00    +0.149 HD
ATOM     21  O   UNK A  0       -5.821  -0.116  -6.538  0.00  0.00    -0.276 OA
BRANCH  18  22
ATOM     22  C   UNK A  0       -6.489  -2.156  -7.596  0.00  0.00    +0.096 C 
BRANCH  22  23
ATOM     23  C   UNK A  0       -6.076  -3.643  -7.739  0.00  0.00    +0.009 C 
BRANCH  23  24
ATOM     24  C   UNK A  0       -4.606  -3.860  -8.156  0.00  0.00    +0.000 C 
BRANCH  24  25
ATOM     25  C   UNK A  0       -4.252  -5.344  -8.368  0.00  0.00    +0.000 C 
BRANCH  25  26
ATOM     26  C   UNK A  0       -2.757  -5.606  -8.640  0.00  0.00    +0.000 C 
BRANCH  26  27
ATOM     27  C   UNK A  0       -2.224  -4.975  -9.941  0.00  0.00    +0.000 C 
BRANCH  27  28
ATOM     28  C   UNK A  0       -0.748  -5.315 -10.210  0.00  0.00    -0.000 C 
BRANCH  28  29
ATOM     29  C   UNK A  0       -0.195  -4.630 -11.473  0.00  0.00    -0.000 C 
BRANCH  29  30
ATOM     30  C   UNK A  0        1.291  -4.949 -11.726  0.00  0.00    -0.000 C 
BRANCH  30  31
ATOM     31  C   UNK A  0        1.869  -4.316 -13.007  0.00  0.00    -0.000 C 
BRANCH  31  32
ATOM     32  C   UNK A  0        1.955  -2.777 -12.972  0.00  0.00    -0.000 C 
BRANCH  32  34
ATOM     33  C   UNK A  0        2.715  -0.654 -14.188  0.00  0.00    +0.004 C 
ATOM     34  C   UNK A  0        2.625  -2.186 -14.224  0.00  0.00    -0.003 C 
ENDBRANCH  32  34
ENDBRANCH  31  32
ENDBRANCH  30  31
ENDBRANCH  29  30
ENDBRANCH  28  29
ENDBRANCH  27  28
ENDBRANCH  26  27
ENDBRANCH  25  26
ENDBRANCH  24  25
ENDBRANCH  23  24
ENDBRANCH  22  23
ENDBRANCH  18  22
ENDBRANCH  17  19
BRANCH  17  35
ATOM     35  CB  GLU A  1       -4.349  -2.428  -3.207  0.00  0.00    +0.043 C 
BRANCH  35  36
ATOM     36  CG  GLU A  1       -5.696  -2.892  -2.606  0.00  0.00    +0.123 C 
BRANCH  36  37
ATOM     37  CD  GLU A  1       -5.590  -3.832  -1.390  0.00  0.00    +0.305 C 
ATOM     38  OE2 GLU A  1       -6.672  -4.209  -0.890  0.00  0.00    -0.251 OA
BRANCH  37  39
ATOM     39  OE1 GLU A  1       -4.459  -4.165  -0.968  0.00  0.00    -0.481 OA
ATOM     40  HE1 GLU A  1       -4.384  -4.736  -0.229  0.00  0.00    +0.295 HD
ENDBRANCH  37  39
ENDBRANCH  36  37
ENDBRANCH  35  36
ENDBRANCH  17  35
ENDBRANCH  13  17
ENDBRANCH  11  14
ENDBRANCH   7  11
ENDBRANCH   6   8
BRANCH   6  41
ATOM     41  CB  VAL A  3       -0.578  -0.735   0.366  0.00  0.00    +0.012 C 
ATOM     42  CG2 VAL A  3        0.026  -0.674   1.787  0.00  0.00    +0.009 C 
ATOM     43  CG1 VAL A  3       -2.099  -0.956   0.469  0.00  0.00    +0.009 C 
ENDBRANCH   6  41
ENDBRANCH   2   6
ENDBRANCH   1   3
BRANCH   1  44
ATOM     44  C   SER A  4        3.649   1.692   1.544  0.00  0.00    +0.236 C 
ATOM     45  N   LEU A  5        4.982   1.543   1.504  0.00  0.00    -0.302 N 
ATOM     46  H   LEU A  5        5.492   1.840   0.684  0.00  0.00    +0.150 HD
ATOM     47  O   SER A  4        2.942   1.363   2.498  0.00  0.00    -0.274 OA
BRANCH  45  48
ATOM     48  CA  LEU A  5        5.792   0.985   2.584  0.00  0.00    +0.159 C 
BRANCH  48  49
ATOM     49  C   LEU A  5        7.246   1.446   2.412  0.00  0.00    +0.234 C 
ATOM     50  N   LYS A  6        7.867   1.851   3.532  0.00  0.00    -0.302 N 
ATOM     51  H   LYS A  6        7.352   1.856   4.401  0.00  0.00    +0.150 HD
ATOM     52  O   LEU A  5        7.773   1.393   1.300  0.00  0.00    -0.274 OA
BRANCH  50  53
ATOM     53  CA  LYS A  6        9.284   2.198   3.634  0.00  0.00    +0.159 C 
BRANCH  53  54
ATOM     54  C   LYS A  6       10.142   0.910   3.606  0.00  0.00    +0.237 C 
ATOM     55  N   PRO A  7       11.105   0.790   2.659  0.00  0.00    -0.288 N 
ATOM     56  CA  PRO A  7       12.136  -0.270   2.694  0.00  0.00    +0.162 C 
ATOM     57  CB  PRO A  7       12.984  -0.014   1.431  0.00  0.00    +0.033 C 
ATOM     58  CG  PRO A  7       12.089   0.800   0.515  0.00  0.00    +0.021 C 
ATOM     59  CD  PRO A  7       11.288   1.650   1.490  0.00  0.00    +0.109 C 
ATOM     60  O   LYS A  6        9.925   0.058   4.469  0.00  0.00    -0.274 OA
BRANCH  56  61
ATOM     61  C   PRO A  7       12.989  -0.241   3.978  0.00  0.00    +0.234 C 
ATOM     62  N   THR A  8       12.901  -1.326   4.766  0.00  0.00    -0.299 N 
ATOM     63  H   THR A  8       12.304  -2.090   4.481  0.00  0.00    +0.150 HD
ATOM     64  O   PRO A  7       13.669   0.753   4.235  0.00  0.00    -0.274 OA
BRANCH  62  65
ATOM     65  CA  THR A  8       13.627  -1.537   6.036  0.00  0.00    +0.210 C 
BRANCH  65  66
ATOM     66  C   THR A  8       14.240  -2.998   6.087  0.00  0.00    +0.328 C 
ATOM     67  OXT THR A  8       14.262  -3.555   7.210  0.00  0.00    -0.249 OA
BRANCH  66  68
ATOM     68  O   THR A  8       14.738  -3.422   5.016  0.00  0.00    -0.479 OA
ATOM     69  H   THR A  8       15.117  -4.278   4.981  0.00  0.00    +0.295 HD
ENDBRANCH  66  68
ENDBRANCH  65  66
BRANCH  65  70
ATOM     70  CB  THR A  8       12.774  -1.112   7.284  0.00  0.00    +0.143 C 
ATOM     71  CG2 THR A  8       12.347   0.366   7.294  0.00  0.00    +0.040 C 
BRANCH  70  72
ATOM     72  OG1 THR A  8       11.601  -1.899   7.404  0.00  0.00    -0.390 OA
ATOM     73  HG1 THR A  8       11.866  -2.814   7.530  0.00  0.00    +0.210 HD
ENDBRANCH  70  72
ENDBRANCH  65  70
ENDBRANCH  62  65
ENDBRANCH  56  61
ENDBRANCH  53  54
BRANCH  53  74
ATOM     74  CB  LYS A  6        9.484   2.959   4.964  0.00  0.00    +0.032 C 
BRANCH  74  75
ATOM     75  CG  LYS A  6       10.931   3.438   5.201  0.00  0.00    +0.000 C 
BRANCH  75  76
ATOM     76  CD  LYS A  6       11.109   4.149   6.549  0.00  0.00    -0.019 C 
BRANCH  76  77
ATOM     77  CE  LYS A  6       12.570   4.556   6.800  0.00  0.00    -0.086 C 
BRANCH  77  78
ATOM     78  NZ  LYS A  6       12.737   5.228   8.101  0.00  0.00    +0.378 N 
ATOM     79  HZ1 LYS A  6       12.163   6.058   8.130  0.00  0.00    -0.090 HD
ATOM     80  HZ2 LYS A  6       12.460   4.601   8.843  0.00  0.00    -0.090 HD
ATOM     81  HZ3 LYS A  6       13.706   5.487   8.225  0.00  0.00    -0.090 HD
ENDBRANCH  77  78
ENDBRANCH  76  77
ENDBRANCH  75  76
ENDBRANCH  74  75
ENDBRANCH  53  74
ENDBRANCH  50  53
ENDBRANCH  48  49
BRANCH  48  82
ATOM     82  CB  LEU A  5        5.651  -0.561   2.608  0.00  0.00    +0.034 C 
BRANCH  82  83
ATOM     83  CG  LEU A  5        6.505  -1.314   3.659  0.00  0.00    -0.015 C 
ATOM     84  CD2 LEU A  5        6.218  -0.848   5.103  0.00  0.00    +0.007 C 
ATOM     85  CD1 LEU A  5        6.354  -2.842   3.498  0.00  0.00    +0.007 C 
ENDBRANCH  82  83
ENDBRANCH  48  82
ENDBRANCH  45  48
ENDBRANCH   1  44
BRANCH   1  86
ATOM     86  CB  SER A  4        3.051   3.891   0.361  0.00  0.00    +0.187 C 
BRANCH  86  87
ATOM     87  OG  SER A  4        2.487   4.410   1.551  0.00  0.00    -0.393 OA
ATOM     88  H   SER A  4        2.544   5.368   1.526  0.00  0.00    +0.209 HD
ENDBRANCH  86  87
ENDBRANCH   1  86
TORSDOF 44
