REMARK  Name = DB18037
REMARK                            x       y       z     vdW  Elec       q    Type
REMARK                         _______ _______ _______ _____ _____    ______ ____
ROOT
ATOM      1  C   LIG    1       -0.052  -0.122  -0.146  0.00  0.00    +0.163 C 
ENDROOT
BRANCH   1   2
ATOM      2  C   LIG    1        1.480  -0.154  -0.008  0.00  0.00    +0.234 C 
ATOM      3  N   LIG    1        2.003   0.725   0.866  0.00  0.00    -0.302 N 
ATOM      4  H   LIG    1        1.382   1.417   1.259  0.00  0.00    +0.150 HD
ATOM      5  O   LIG    1        2.139  -0.961  -0.664  0.00  0.00    -0.274 OA
BRANCH   3   6
ATOM      6  C   LIG    1        3.436   0.948   1.090  0.00  0.00    +0.162 C 
BRANCH   6   7
ATOM      7  C   LIG    1        4.157  -0.313   1.551  0.00  0.00    +0.248 A 
ATOM      8  O   LIG    1        3.663  -0.998   2.612  0.00  0.00    -0.336 OA
ATOM      9  N   LIG    1        4.572  -2.033   2.820  0.00  0.00    -0.061 NA
ATOM     10  C   LIG    1        5.480  -1.822   1.891  0.00  0.00    +0.176 A 
ATOM     11  N   LIG    1        5.278  -0.795   1.090  0.00  0.00    -0.194 NA
BRANCH  10  12
ATOM     12  C   LIG    1        6.712  -2.699   1.761  0.00  0.00    +0.114 C 
BRANCH  12  13
ATOM     13  C   LIG    1        8.002  -1.934   2.032  0.00  0.00    -0.040 A 
ATOM     14  C   LIG    1        8.324  -1.553   3.338  0.00  0.00    +0.004 A 
ATOM     15  C   LIG    1        9.498  -0.848   3.588  0.00  0.00    +0.000 A 
ATOM     16  C   LIG    1       10.347  -0.526   2.531  0.00  0.00    +0.000 A 
ATOM     17  C   LIG    1       10.032  -0.901   1.227  0.00  0.00    +0.000 A 
ATOM     18  C   LIG    1        8.858  -1.606   0.976  0.00  0.00    +0.004 A 
ENDBRANCH  12  13
ENDBRANCH  10  12
ENDBRANCH   6   7
BRANCH   6  19
ATOM     19  C   LIG    1        3.654   2.114   2.082  0.00  0.00    +0.032 C 
BRANCH  19  20
ATOM     20  C   LIG    1        5.132   2.525   2.258  0.00  0.00    +0.000 C 
BRANCH  20  21
ATOM     21  C   LIG    1        5.315   3.730   3.202  0.00  0.00    -0.019 C 
BRANCH  21  22
ATOM     22  C   LIG    1        6.785   4.093   3.488  0.00  0.00    -0.086 C 
BRANCH  22  23
ATOM     23  N   LIG    1        7.470   4.640   2.230  0.00  0.00    +0.378 N 
ATOM     24  H   LIG    1        7.462   3.944   1.498  0.00  0.00    -0.090 HD
ATOM     25  H   LIG    1        6.987   5.464   1.901  0.00  0.00    -0.090 HD
ATOM     26  H   LIG    1        8.428   4.886   2.435  0.00  0.00    -0.090 HD
ENDBRANCH  22  23
ENDBRANCH  21  22
ENDBRANCH  20  21
ENDBRANCH  19  20
ENDBRANCH   6  19
ENDBRANCH   3   6
ENDBRANCH   1   2
BRANCH   1  27
ATOM     27  N   LIG    1       -0.475  -0.541  -1.483  0.00  0.00    -0.305 N 
ATOM     28  H   LIG    1       -0.825  -1.487  -1.540  0.00  0.00    +0.149 HD
ATOM     29  C   LIG    1       -0.507   0.228  -2.583  0.00  0.00    +0.199 C 
ATOM     30  O   LIG    1       -0.080   1.387  -2.609  0.00  0.00    -0.278 OA
BRANCH  29  31
ATOM     31  C   LIG    1       -1.163  -0.470  -3.812  0.00  0.00    +0.013 C 
BRANCH  31  32
ATOM     32  N   LIG    1       -0.973   0.401  -5.029  0.00  0.00    +0.386 N 
ATOM     33  H   LIG    1       -1.358  -0.070  -5.835  0.00  0.00    -0.089 HD
ATOM     34  H   LIG    1       -1.449   1.280  -4.886  0.00  0.00    -0.089 HD
ATOM     35  H   LIG    1        0.016   0.558  -5.169  0.00  0.00    -0.089 HD
ENDBRANCH  31  32
BRANCH  31  36
ATOM     36  C   LIG    1       -2.659  -0.814  -3.555  0.00  0.00    -0.006 C 
BRANCH  36  37
ATOM     37  C   LIG    1       -3.340  -1.664  -4.643  0.00  0.00    +0.014 C 
BRANCH  37  38
ATOM     38  C   LIG    1       -4.761  -2.090  -4.234  0.00  0.00    +0.084 C 
BRANCH  38  39
ATOM     39  N   LIG    1       -5.479  -2.763  -5.330  0.00  0.00    -0.283 NA
ATOM     40  H   LIG    1       -4.963  -2.866  -6.193  0.00  0.00    +0.125 HD
BRANCH  39  41
ATOM     41  C   LIG    1       -6.734  -3.256  -5.293  0.00  0.00    +0.167 C 
BRANCH  41  42
ATOM     42  N   LIG    1       -7.230  -3.843  -6.391  0.00  0.00    -0.297 NA
ATOM     43  H   LIG    1       -6.670  -3.917  -7.228  0.00  0.00    +0.121 HD
ATOM     44  H   LIG    1       -8.169  -4.216  -6.386  0.00  0.00    +0.121 HD
ENDBRANCH  41  42
BRANCH  41  45
ATOM     45  N   LIG    1       -7.506  -3.181  -4.195  0.00  0.00    -0.297 NA
ATOM     46  H   LIG    1       -7.153  -2.743  -3.356  0.00  0.00    +0.121 HD
ATOM     47  H   LIG    1       -8.441  -3.563  -4.203  0.00  0.00    +0.121 HD
ENDBRANCH  41  45
ENDBRANCH  39  41
ENDBRANCH  38  39
ENDBRANCH  37  38
ENDBRANCH  36  37
ENDBRANCH  31  36
ENDBRANCH  29  31
ENDBRANCH   1  27
BRANCH   1  48
ATOM     48  C   LIG    1       -0.724  -0.991   0.952  0.00  0.00    +0.067 C 
BRANCH  48  51
ATOM     49  C   LIG    1       -2.540   1.275   1.777  0.00  0.00    +0.044 C 
ATOM     50  C   LIG    1       -3.084   0.001   1.140  0.00  0.00    -0.044 A 
ATOM     51  C   LIG    1       -2.253  -1.085   0.782  0.00  0.00    -0.039 A 
ATOM     52  C   LIG    1       -2.843  -2.242   0.223  0.00  0.00    -0.044 A 
ATOM     53  C   LIG    1       -2.020  -3.455  -0.197  0.00  0.00    +0.044 C 
ATOM     54  C   LIG    1       -4.224  -2.291   0.015  0.00  0.00    +0.049 A 
ATOM     55  C   LIG    1       -5.032  -1.214   0.361  0.00  0.00    +0.117 A 
ATOM     56  C   LIG    1       -4.464  -0.077   0.927  0.00  0.00    +0.049 A 
BRANCH  55  57
ATOM     57  O   LIG    1       -6.383  -1.273   0.143  0.00  0.00    -0.507 OA
ATOM     58  H   LIG    1       -6.847  -0.492   0.455  0.00  0.00    +0.292 HD
ENDBRANCH  55  57
ENDBRANCH  48  51
ENDBRANCH   1  48
TORSDOF 23
