REMARK  Name = DB18237
REMARK                            x       y       z     vdW  Elec       q    Type
REMARK                         _______ _______ _______ _____ _____    ______ ____
ROOT
ATOM      1  C   LIG    1        2.216   0.746  -1.117  0.00  0.00    +0.128 C 
ATOM      2  C   LIG    1        3.560   1.107  -0.939  0.00  0.00    +0.122 C 
ATOM      3  S   LIG    1        4.578   0.956   0.585  0.00  0.00    +0.035 S 
ATOM      4  O   LIG    1        3.850   1.535   1.799  0.00  0.00    -0.256 OA
ATOM      5  C   LIG    1        5.758   2.199  -0.123  0.00  0.00    +0.106 C 
ATOM      6  C   LIG    1        5.696   2.047  -1.645  0.00  0.00    +0.039 C 
ATOM      7  C   LIG    1        4.279   1.666  -1.996  0.00  0.00    +0.064 C 
ATOM      8  N   LIG    1        3.711   1.865  -3.215  0.00  0.00    -0.274 NA
ATOM      9  H   LIG    1        3.772   2.862  -3.422  0.00  0.00    +0.126 HD
ATOM     10  C   LIG    1        2.406   1.495  -3.369  0.00  0.00    +0.177 C 
ATOM     11  N   LIG    1        1.698   0.958  -2.349  0.00  0.00    -0.260 NA
ATOM     12  H   LIG    1        0.735   0.705  -2.513  0.00  0.00    +0.127 HD
ENDROOT
BRANCH  10  13
ATOM     13  N   LIG    1        1.798   1.717  -4.654  0.00  0.00    -0.269 NA
ATOM     14  C   LIG    1        2.526   2.242  -5.842  0.00  0.00    +0.088 C 
ATOM     15  C   LIG    1        1.728   3.343  -6.580  0.00  0.00    +0.027 C 
ATOM     16  C   LIG    1        0.303   2.890  -6.958  0.00  0.00    +0.059 C 
ATOM     17  C   LIG    1       -0.408   2.331  -5.707  0.00  0.00    +0.027 C 
ATOM     18  C   LIG    1        0.425   1.246  -4.986  0.00  0.00    +0.088 C 
BRANCH  16  19
ATOM     19  C   LIG    1       -0.495   3.995  -7.656  0.00  0.00    +0.132 A 
ATOM     20  N   LIG    1       -0.803   3.798  -8.968  0.00  0.00    -0.239 NA
ATOM     21  C   LIG    1       -1.506   4.790  -9.576  0.00  0.00    +0.134 A 
ATOM     22  C   LIG    1       -1.897   5.950  -8.903  0.00  0.00    +0.077 A 
ATOM     23 CL   LIG    1       -2.790   7.195  -9.697  0.00  0.00    -0.080 Cl
ATOM     24  C   LIG    1       -1.532   6.058  -7.559  0.00  0.00    +0.134 A 
ATOM     25  N   LIG    1       -0.829   5.089  -6.916  0.00  0.00    -0.239 NA
ENDBRANCH  16  19
ENDBRANCH  10  13
BRANCH   1  26
ATOM     26  N   LIG    1        1.405   0.176  -0.093  0.00  0.00    -0.287 NA
ATOM     27  H   LIG    1        1.826   0.021   0.813  0.00  0.00    +0.124 HD
BRANCH  26  28
ATOM     28  C   LIG    1       -0.043  -0.117  -0.221  0.00  0.00    +0.044 C 
ATOM     29  C   LIG    1       -0.403  -1.187  -1.280  0.00  0.00    +0.024 C 
ATOM     30  C   LIG    1       -1.329  -1.857  -0.256  0.00  0.00    +0.004 C 
ATOM     31  C   LIG    1       -0.582  -1.097   0.848  0.00  0.00    +0.024 C 
BRANCH  28  32
ATOM     32  C   LIG    1       -0.903   1.180  -0.350  0.00  0.00    +0.178 C 
BRANCH  32  33
ATOM     33  O   LIG    1       -0.809   2.013   0.792  0.00  0.00    -0.393 OA
ATOM     34  H   LIG    1       -1.388   2.770   0.670  0.00  0.00    +0.209 HD
ENDBRANCH  32  33
ENDBRANCH  28  32
ENDBRANCH  26  28
ENDBRANCH   1  26
TORSDOF 6
