REMARK  Name = DB18391
REMARK                            x       y       z     vdW  Elec       q    Type
REMARK                         _______ _______ _______ _____ _____    ______ ____
ROOT
ATOM      1  C   LIG    1        3.744   0.291   0.828  0.00  0.00    +0.308 C 
ENDROOT
BRANCH   1   2
ATOM      2  C   LIG    1        4.199   0.204   2.279  0.00  0.00    +0.010 A 
ATOM      3  C   LIG    1        4.383  -1.035   2.906  0.00  0.00    +0.054 A 
ATOM      4  C   LIG    1        4.803  -1.105   4.236  0.00  0.00    +0.129 A 
ATOM      5  C   LIG    1        5.008   0.080   4.955  0.00  0.00    +0.046 A 
ATOM      6  C   LIG    1        4.819   1.317   4.340  0.00  0.00    +0.004 A 
ATOM      7  C   LIG    1        4.417   1.379   3.006  0.00  0.00    +0.008 A 
BRANCH   4   8
ATOM      8  O   LIG    1        4.957  -2.346   4.814  0.00  0.00    -0.456 OA
BRANCH   8   9
ATOM      9  C   LIG    1        6.073  -2.655   5.565  0.00  0.00    +0.128 A 
ATOM     10  C   LIG    1        7.344  -2.134   5.283  0.00  0.00    +0.046 A 
ATOM     11  C   LIG    1        8.438  -2.502   6.061  0.00  0.00    +0.004 A 
ATOM     12  C   LIG    1        8.266  -3.399   7.114  0.00  0.00    +0.000 A 
ATOM     13  C   LIG    1        7.010  -3.934   7.390  0.00  0.00    +0.004 A 
ATOM     14  C   LIG    1        5.917  -3.565   6.612  0.00  0.00    +0.046 A 
ENDBRANCH   8   9
ENDBRANCH   4   8
ENDBRANCH   1   2
BRANCH   1  15
ATOM     15  C   LIG    1        4.422  -0.702  -0.034  0.00  0.00    +0.112 C 
ATOM     16  N   LIG    1        4.952  -1.479  -0.708  0.00  0.00    -0.192 NA
ENDBRANCH   1  15
BRANCH   1  17
ATOM     17  O   LIG    1        2.318   0.206   0.797  0.00  0.00    -0.441 OA
BRANCH  17  18
ATOM     18  C   LIG    1        1.610   0.294  -0.356  0.00  0.00    +0.316 C 
ATOM     19  O   LIG    1        2.085   0.478  -1.480  0.00  0.00    -0.250 OA
BRANCH  18  20
ATOM     20  C   LIG    1        0.088   0.183  -0.110  0.00  0.00    +0.130 C 
BRANCH  20  21
ATOM     21  C   LIG    1       -0.518  -0.763  -1.159  0.00  0.00    -0.033 A 
ATOM     22  C   LIG    1       -0.818  -0.321  -2.455  0.00  0.00    +0.006 A 
ATOM     23  C   LIG    1       -1.371  -1.198  -3.384  0.00  0.00    +0.020 A 
ATOM     24  C   LIG    1       -1.625  -2.519  -3.022  0.00  0.00    +0.041 A 
ATOM     25 CL   LIG    1       -2.315  -3.605  -4.172  0.00  0.00    -0.084 Cl
ATOM     26  C   LIG    1       -1.327  -2.970  -1.737  0.00  0.00    +0.020 A 
ATOM     27  C   LIG    1       -0.773  -2.093  -0.809  0.00  0.00    +0.006 A 
ENDBRANCH  20  21
BRANCH  20  29
ATOM     28  C   LIG    1       -0.009   2.487   1.091  0.00  0.00    +0.008 C 
ATOM     29  C   LIG    1       -0.620   1.574   0.003  0.00  0.00    +0.001 C 
ATOM     30  C   LIG    1       -2.136   1.429   0.256  0.00  0.00    +0.008 C 
ENDBRANCH  20  29
ENDBRANCH  18  20
ENDBRANCH  17  18
ENDBRANCH   1  17
TORSDOF 9
