REMARK  Name = DB18600
REMARK                            x       y       z     vdW  Elec       q    Type
REMARK                         _______ _______ _______ _____ _____    ______ ____
ROOT
ATOM      1  N   LIG    1        1.417  -0.262  -0.023  0.00  0.00    +0.380 N 
ATOM      2  H   LIG    1        1.800   0.414  -0.669  0.00  0.00    -0.082 HD
ATOM      3  C   LIG    1        2.030  -0.005   1.375  0.00  0.00    -0.077 C 
ATOM      4  C   LIG    1        3.561  -0.156   1.300  0.00  0.00    -0.000 C 
ATOM      5  C   LIG    1        4.001  -1.540   0.766  0.00  0.00    +0.051 C 
ATOM      6  C   LIG    1        3.333  -1.782  -0.604  0.00  0.00    -0.000 C 
ATOM      7  C   LIG    1        1.800  -1.668  -0.541  0.00  0.00    -0.077 C 
ENDROOT
BRANCH   5   8
ATOM      8  N   LIG    1        5.444  -1.765   0.673  0.00  0.00    -0.301 NA
ATOM      9  H   LIG    1        5.621  -2.600   0.132  0.00  0.00    +0.123 HD
BRANCH   8  10
ATOM     10  C   LIG    1        6.173  -1.888   1.946  0.00  0.00    +0.152 C 
BRANCH  10  11
ATOM     11  C   LIG    1        7.468  -2.692   1.769  0.00  0.00    +0.064 A 
ATOM     12  N   LIG    1        8.183  -2.517   0.620  0.00  0.00    -0.258 NA
ATOM     13  C   LIG    1        9.342  -3.209   0.473  0.00  0.00    +0.111 A 
ATOM     14  C   LIG    1        9.828  -4.086   1.444  0.00  0.00    +0.020 A 
ATOM     15  C   LIG    1        9.090  -4.257   2.616  0.00  0.00    +0.003 A 
ATOM     16  C   LIG    1        7.896  -3.553   2.787  0.00  0.00    +0.025 A 
ENDBRANCH  10  11
BRANCH  10  17
ATOM     17  C   LIG    1        6.474  -0.540   2.612  0.00  0.00    +0.064 A 
ATOM     18  N   LIG    1        6.846   0.498   1.808  0.00  0.00    -0.258 NA
ATOM     19  C   LIG    1        7.123   1.691   2.391  0.00  0.00    +0.111 A 
ATOM     20  C   LIG    1        7.047   1.897   3.770  0.00  0.00    +0.020 A 
ATOM     21  C   LIG    1        6.670   0.827   4.583  0.00  0.00    +0.003 A 
ATOM     22  C   LIG    1        6.381  -0.409   4.003  0.00  0.00    +0.025 A 
ENDBRANCH  10  17
ENDBRANCH   8  10
ENDBRANCH   5   8
BRANCH   1  23
ATOM     23  C   LIG    1       -0.126  -0.120  -0.006  0.00  0.00    -0.078 C 
BRANCH  23  24
ATOM     24  C   LIG    1       -0.555   1.351   0.148  0.00  0.00    -0.003 C 
BRANCH  24  25
ATOM     25  C   LIG    1       -2.079   1.521   0.053  0.00  0.00    +0.079 C 
BRANCH  25  26
ATOM     26  N   LIG    1       -2.508   2.910   0.160  0.00  0.00    -0.308 NA
ATOM     27  H   LIG    1       -1.796   3.625   0.218  0.00  0.00    +0.123 HD
BRANCH  26  36
ATOM     28 CL   LIG    1       -5.542   9.052   0.442  0.00  0.00    -0.116 Cl
ATOM     29  C   LIG    1       -5.054   7.398   0.352  0.00  0.00    +0.073 C 
ATOM     30  C   LIG    1       -6.018   6.399   0.249  0.00  0.00    +0.041 C 
ATOM     31  C   LIG    1       -5.607   5.050   0.176  0.00  0.00    +0.052 C 
ATOM     32  N   LIG    1       -6.536   4.042   0.075  0.00  0.00    -0.303 NA
ATOM     33  H   LIG    1       -7.514   4.293   0.054  0.00  0.00    +0.123 HD
ATOM     34  C   LIG    1       -6.224   2.739   0.001  0.00  0.00    +0.077 C 
ATOM     35  C   LIG    1       -4.891   2.347   0.025  0.00  0.00    +0.036 C 
ATOM     36  C   LIG    1       -3.862   3.297   0.128  0.00  0.00    +0.051 C 
ATOM     37  C   LIG    1       -4.225   4.685   0.205  0.00  0.00    +0.024 C 
ATOM     38  C   LIG    1       -3.279   5.746   0.311  0.00  0.00    +0.009 C 
ATOM     39  C   LIG    1       -3.700   7.074   0.382  0.00  0.00    +0.021 C 
ENDBRANCH  26  36
ENDBRANCH  25  26
ENDBRANCH  24  25
ENDBRANCH  23  24
ENDBRANCH   1  23
TORSDOF 9
