REMARK  Name = DB18082
REMARK                            x       y       z     vdW  Elec       q    Type
REMARK                         _______ _______ _______ _____ _____    ______ ____
ROOT
ATOM      1  N   LIG    1        1.429  -0.040   0.015  0.00  0.00    -0.325 N 
ATOM      2  C   LIG    1        2.328  -1.099  -0.004  0.00  0.00    +0.072 A 
ATOM      3  C   LIG    1        2.187  -2.492  -0.006  0.00  0.00    +0.044 A 
ATOM      4  C   LIG    1        3.356  -3.256  -0.020  0.00  0.00    +0.036 A 
ATOM      5 BR   LIG    1        3.164  -5.154  -0.020  0.00  0.00    -0.049 Br
ATOM      6  C   LIG    1        4.626  -2.665  -0.033  0.00  0.00    +0.064 A 
ATOM      7 BR   LIG    1        6.191  -3.764  -0.049  0.00  0.00    -0.047 Br
ATOM      8  C   LIG    1        4.767  -1.271  -0.035  0.00  0.00    +0.164 A 
ATOM      9  C   LIG    1        3.603  -0.484  -0.022  0.00  0.00    +0.120 A 
ATOM     10  N   LIG    1        3.486   0.877  -0.022  0.00  0.00    -0.230 NA
ATOM     11  C   LIG    1        2.198   1.118  -0.024  0.00  0.00    +0.114 A 
ENDROOT
BRANCH  11  12
ATOM     12  C   LIG    1        1.627   2.536  -0.017  0.00  0.00    +0.052 C 
ATOM     13  C   LIG    1        1.234   3.000   1.406  0.00  0.00    -0.008 C 
ATOM     14  C   LIG    1        0.589   4.400   1.406  0.00  0.00    -0.082 C 
ATOM     15  N   LIG    1        1.536   5.405   0.727  0.00  0.00    +0.379 N 
ATOM     16  H   LIG    1        1.104   6.318   0.712  0.00  0.00    -0.086 HD
ATOM     17  H   LIG    1        2.381   5.486   1.276  0.00  0.00    -0.086 HD
ATOM     18  C   LIG    1        1.905   4.991  -0.708  0.00  0.00    -0.082 C 
ATOM     19  C   LIG    1        2.547   3.591  -0.684  0.00  0.00    -0.008 C 
ENDBRANCH  11  12
BRANCH   1  21
ATOM     20  C   LIG    1       -0.513  -0.838   1.340  0.00  0.00    +0.030 C 
ATOM     21  C   LIG    1       -0.042  -0.126   0.057  0.00  0.00    +0.083 C 
ATOM     22  C   LIG    1       -0.586  -0.762  -1.236  0.00  0.00    +0.030 C 
ENDBRANCH   1  21
BRANCH   8  23
ATOM     23  N   LIG    1        6.090  -0.637  -0.052  0.00  0.00    +0.009 N 
ATOM     24  O   LIG    1        6.607  -0.377   1.028  0.00  0.00    -0.130 OA
BRANCH  23  25
ATOM     25  O   LIG    1        6.592  -0.404  -1.146  0.00  0.00    -0.396 OA
ATOM     26  H   LIG    1        6.133  -0.633  -1.930  0.00  0.00    +0.329 HD
ENDBRANCH  23  25
ENDBRANCH   8  23
TORSDOF 4
