REMARK  Name = DB18508
REMARK                            x       y       z     vdW  Elec       q    Type
REMARK                         _______ _______ _______ _____ _____    ______ ____
ROOT
ATOM      1 AS   LIG    1       -0.026  -0.388  -0.465  0.00  0.00    +0.000 As
ATOM      2  H   LIG    1        0.000   0.000   0.000  0.00  0.00    +0.000 HD
ATOM      3  O   LIG    1       -0.178  -0.897   1.120  0.00  0.00    +0.000 OA
ENDROOT
BRANCH   1   4
ATOM      4  O   LIG    1        0.203   1.285  -0.654  0.00  0.00    +0.000 OA
ATOM      5  H   LIG    1        0.282   1.496  -1.598  0.00  0.00    +0.000 HD
ENDBRANCH   1   4
TORSDOF 1
