REMARK  Name = DB18093
REMARK                            x       y       z     vdW  Elec       q    Type
REMARK                         _______ _______ _______ _____ _____    ______ ____
ROOT
ATOM      1  C   LIG    1        2.548  -0.610   0.657  0.00  0.00    +0.228 C 
ENDROOT
BRANCH   1   2
ATOM      2  C   LIG    1        1.030  -0.859   0.568  0.00  0.00    +0.206 C 
BRANCH   2   3
ATOM      3  O   LIG    1        0.390   0.335   0.135  0.00  0.00    -0.376 OA
BRANCH   3   4
ATOM      4  C   LIG    1       -1.023   0.239   0.039  0.00  0.00    +0.160 C 
BRANCH   4   5
ATOM      5  C   LIG    1       -1.579   1.649  -0.205  0.00  0.00    +0.028 C 
BRANCH   5   6
ATOM      6  C   LIG    1       -3.113   1.684  -0.342  0.00  0.00    +0.002 C 
BRANCH   6   7
ATOM      7  C   LIG    1       -3.709   3.105  -0.381  0.00  0.00    +0.000 C 
BRANCH   7   8
ATOM      8  C   LIG    1       -3.294   3.941  -1.607  0.00  0.00    +0.000 C 
BRANCH   8   9
ATOM      9  C   LIG    1       -3.914   5.349  -1.607  0.00  0.00    +0.000 C 
BRANCH   9  10
ATOM     10  C   LIG    1       -3.487   6.196  -2.819  0.00  0.00    -0.000 C 
BRANCH  10  11
ATOM     11  C   LIG    1       -4.069   7.623  -2.786  0.00  0.00    -0.000 C 
BRANCH  11  12
ATOM     12  C   LIG    1       -3.595   8.530  -3.938  0.00  0.00    -0.000 C 
BRANCH  12  13
ATOM     13  C   LIG    1       -4.105   8.109  -5.330  0.00  0.00    -0.000 C 
BRANCH  13  14
ATOM     14  C   LIG    1       -3.690   9.092  -6.439  0.00  0.00    -0.000 C 
BRANCH  14  15
ATOM     15  C   LIG    1       -4.227   8.696  -7.826  0.00  0.00    -0.000 C 
BRANCH  15  16
ATOM     16  C   LIG    1       -3.814   9.686  -8.933  0.00  0.00    -0.000 C 
BRANCH  16  17
ATOM     17  C   LIG    1       -4.433   9.392 -10.313  0.00  0.00    -0.000 C 
BRANCH  17  18
ATOM     18  C   LIG    1       -3.953   8.078 -10.960  0.00  0.00    -0.000 C 
BRANCH  18  19
ATOM     19  C   LIG    1       -4.534   7.859 -12.368  0.00  0.00    -0.000 C 
BRANCH  19  21
ATOM     20  C   LIG    1       -4.637   6.331 -14.422  0.00  0.00    +0.004 C 
ATOM     21  C   LIG    1       -4.064   6.544 -13.014  0.00  0.00    -0.003 C 
ENDBRANCH  19  21
ENDBRANCH  18  19
ENDBRANCH  17  18
ENDBRANCH  16  17
ENDBRANCH  15  16
ENDBRANCH  14  15
ENDBRANCH  13  14
ENDBRANCH  12  13
ENDBRANCH  11  12
ENDBRANCH  10  11
ENDBRANCH   9  10
ENDBRANCH   8   9
ENDBRANCH   7   8
ENDBRANCH   6   7
ENDBRANCH   5   6
ENDBRANCH   4   5
ENDBRANCH   3   4
ENDBRANCH   2   3
ENDBRANCH   1   2
BRANCH   1  22
ATOM     22  O   LIG    1        2.758   0.493   1.539  0.00  0.00    -0.457 OA
BRANCH  22  23
ATOM     23  C   LIG    1        3.856   1.276   1.468  0.00  0.00    +0.307 C 
ATOM     24  O   LIG    1        4.787   1.156   0.670  0.00  0.00    -0.251 OA
BRANCH  23  25
ATOM     25  C   LIG    1        3.818   2.364   2.543  0.00  0.00    +0.121 C 
BRANCH  25  26
ATOM     26  C   LIG    1        5.088   3.230   2.660  0.00  0.00    +0.015 C 
BRANCH  26  27
ATOM     27  C   LIG    1        5.012   4.229   3.828  0.00  0.00    +0.027 C 
BRANCH  27  28
ATOM     28  C   LIG    1        3.924   5.284   3.684  0.00  0.00    -0.031 C 
ATOM     29  C   LIG    1        2.706   5.279   4.262  0.00  0.00    -0.027 C 
BRANCH  29  30
ATOM     30  C   LIG    1        2.118   4.205   5.161  0.00  0.00    +0.053 C 
BRANCH  30  31
ATOM     31  C   LIG    1        0.921   3.495   4.547  0.00  0.00    -0.027 C 
ATOM     32  C   LIG    1       -0.303   3.318   5.081  0.00  0.00    -0.027 C 
BRANCH  32  33
ATOM     33  C   LIG    1       -0.803   3.768   6.444  0.00  0.00    +0.053 C 
BRANCH  33  34
ATOM     34  C   LIG    1       -1.109   2.612   7.380  0.00  0.00    -0.027 C 
ATOM     35  C   LIG    1       -0.330   2.122   8.365  0.00  0.00    -0.027 C 
BRANCH  35  36
ATOM     36  C   LIG    1        1.065   2.580   8.759  0.00  0.00    +0.053 C 
BRANCH  36  37
ATOM     37  C   LIG    1        1.124   3.254  10.120  0.00  0.00    -0.027 C 
ATOM     38  C   LIG    1        1.429   4.540  10.383  0.00  0.00    -0.031 C 
BRANCH  38  39
ATOM     39  C   LIG    1        1.748   5.632   9.376  0.00  0.00    +0.027 C 
BRANCH  39  40
ATOM     40  C   LIG    1        3.255   5.825   9.144  0.00  0.00    +0.004 C 
BRANCH  40  41
ATOM     41  C   LIG    1        3.562   6.917   8.101  0.00  0.00    +0.000 C 
BRANCH  41  42
ATOM     42  C   LIG    1        5.065   7.183   7.887  0.00  0.00    -0.003 C 
ATOM     43  C   LIG    1        5.832   6.006   7.267  0.00  0.00    +0.004 C 
ENDBRANCH  41  42
ENDBRANCH  40  41
ENDBRANCH  39  40
ENDBRANCH  38  39
ENDBRANCH  36  37
ENDBRANCH  35  36
ENDBRANCH  33  34
ENDBRANCH  32  33
ENDBRANCH  30  31
ENDBRANCH  29  30
ENDBRANCH  27  28
ENDBRANCH  26  27
ENDBRANCH  25  26
ENDBRANCH  23  25
ENDBRANCH  22  23
ENDBRANCH   1  22
BRANCH   1  44
ATOM     44  C   LIG    1        3.327  -1.860   1.128  0.00  0.00    +0.219 C 
BRANCH  44  45
ATOM     45  O   LIG    1        2.812  -2.352   2.359  0.00  0.00    -0.283 OA
BRANCH  45  46
ATOM     46  P   LIG    1        3.783  -2.193   3.782  0.00  0.00    +0.475 P 
ATOM     47  O   LIG    1        4.435  -3.530   4.052  0.00  0.00    -0.227 OA
BRANCH  46  48
ATOM     48  O   LIG    1        4.567  -0.900   3.720  0.00  0.00    -0.302 OA
ATOM     49  H   LIG    1        5.300  -0.996   3.091  0.00  0.00    +0.222 HD
ENDBRANCH  46  48
BRANCH  46  50
ATOM     50  O   LIG    1        2.485  -1.993   4.910  0.00  0.00    -0.289 OA
BRANCH  50  51
ATOM     51  C   LIG    1        1.695  -0.813   4.825  0.00  0.00    +0.153 C 
BRANCH  51  52
ATOM     52  C   LIG    1        1.847   0.070   6.078  0.00  0.00    -0.057 C 
BRANCH  52  53
ATOM     53  N   LIG    1        3.310   0.466   6.310  0.00  0.00    +0.380 N 
ATOM     54  H   LIG    1        3.872  -0.364   6.436  0.00  0.00    -0.090 HD
ATOM     55  H   LIG    1        3.663   0.971   5.509  0.00  0.00    -0.090 HD
ATOM     56  H   LIG    1        3.393   1.047   7.130  0.00  0.00    -0.090 HD
ENDBRANCH  52  53
ENDBRANCH  51  52
ENDBRANCH  50  51
ENDBRANCH  46  50
ENDBRANCH  45  46
ENDBRANCH  44  45
ENDBRANCH   1  44
TORSDOF 43
