REMARK  Name = DB18153
REMARK                            x       y       z     vdW  Elec       q    Type
REMARK                         _______ _______ _______ _____ _____    ______ ____
ROOT
ATOM      1  C   LIG    1        1.593  -0.011  -0.049  0.00  0.00    +0.177 C 
ATOM      2  N   LIG    1        2.326   1.138  -0.049  0.00  0.00    -0.246 NA
ATOM      3  H   LIG    1        2.038   1.691   0.758  0.00  0.00    +0.128 HD
ATOM      4  C   LIG    1        3.684   0.985   0.013  0.00  0.00    +0.203 C 
ATOM      5  N   LIG    1        4.316  -0.222   0.101  0.00  0.00    -0.246 NA
ATOM      6  H   LIG    1        4.954  -0.298  -0.692  0.00  0.00    +0.128 HD
ATOM      7  C   LIG    1        3.512  -1.323   0.095  0.00  0.00    +0.177 C 
ATOM      8  N   LIG    1        2.170  -1.226   0.019  0.00  0.00    -0.248 NA
ATOM      9  H   LIG    1        1.600  -2.059   0.020  0.00  0.00    +0.128 HD
ENDROOT
BRANCH   1  10
ATOM     10  N   LIG    1        0.176   0.091  -0.115  0.00  0.00    -0.283 NA
ATOM     11  H   LIG    1       -0.375  -0.755  -0.114  0.00  0.00    +0.125 HD
BRANCH  10  12
ATOM     12  C   LIG    1       -0.538   1.374  -0.181  0.00  0.00    +0.084 C 
BRANCH  12  14
ATOM     13  C   LIG    1       -2.797   2.561  -0.264  0.00  0.00    +0.005 C 
ATOM     14  C   LIG    1       -2.068   1.212  -0.215  0.00  0.00    +0.012 C 
ENDBRANCH  12  14
ENDBRANCH  10  12
ENDBRANCH   1  10
BRANCH   4  15
ATOM     15  N   LIG    1        4.496   2.137   0.071  0.00  0.00    -0.152 NA
ATOM     16  C   LIG    1        5.937   2.243  -0.135  0.00  0.00    +0.141 C 
BRANCH  15  17
ATOM     17  O   LIG    1        3.892   3.406  -0.252  0.00  0.00    -0.297 OA
ATOM     18  C   LIG    1        3.671   4.144   0.942  0.00  0.00    +0.221 C 
ENDBRANCH  15  17
ENDBRANCH   4  15
BRANCH   7  19
ATOM     19  N   LIG    1        4.119  -2.606   0.179  0.00  0.00    -0.283 NA
ATOM     20  H   LIG    1        3.528  -3.425   0.176  0.00  0.00    +0.125 HD
BRANCH  19  21
ATOM     21  C   LIG    1        5.573  -2.809   0.272  0.00  0.00    +0.084 C 
BRANCH  21  22
ATOM     22  C   LIG    1        5.995  -4.288   0.378  0.00  0.00    +0.012 C 
ATOM     23  C   LIG    1        5.583  -4.977   1.691  0.00  0.00    +0.005 C 
ENDBRANCH  21  22
ENDBRANCH  19  21
ENDBRANCH   7  19
TORSDOF 8
