REMARK  Name = DB18091
REMARK                            x       y       z     vdW  Elec       q    Type
REMARK                         _______ _______ _______ _____ _____    ______ ____
ROOT
ATOM      1  C   LIG    1       -4.168   2.221   1.039  0.00  0.00    +0.029 C 
ATOM      2  C   LIG    1       -4.756   0.829   0.684  0.00  0.00    +0.106 C 
ATOM      3  N   LIG    1       -3.804  -0.227   1.042  0.00  0.00    -0.336 N 
ATOM      4  H   LIG    1       -4.201  -1.154   1.100  0.00  0.00    +0.147 HD
ATOM      5  C   LIG    1       -2.469  -0.071   0.626  0.00  0.00    +0.031 A 
ATOM      6  C   LIG    1       -1.706  -1.225   0.445  0.00  0.00    +0.024 A 
ATOM      7  C   LIG    1       -0.407  -1.142  -0.047  0.00  0.00    +0.013 A 
ATOM      8  C   LIG    1        0.146   0.098  -0.389  0.00  0.00    +0.017 A 
ATOM      9  C   LIG    1       -0.639   1.247  -0.223  0.00  0.00    +0.017 A 
ATOM     10  C   LIG    1       -1.946   1.192   0.279  0.00  0.00    -0.019 A 
ATOM     11  C   LIG    1       -2.772   2.472   0.444  0.00  0.00    +0.049 C 
ATOM     12  C   LIG    1       -2.166   3.439   1.444  0.00  0.00    -0.023 C 
ATOM     13  C   LIG    1       -2.864   3.471   2.593  0.00  0.00    -0.030 C 
ATOM     14  C   LIG    1       -4.069   2.560   2.533  0.00  0.00    +0.033 C 
ENDROOT
BRANCH   2  15
ATOM     15  C   LIG    1       -6.184   0.648   1.218  0.00  0.00    -0.009 A 
ATOM     16  C   LIG    1       -7.300   1.114   0.477  0.00  0.00    +0.027 A 
ATOM     17 BR   LIG    1       -7.090   1.988  -1.207  0.00  0.00    -0.050 Br
ATOM     18  C   LIG    1       -8.604   0.951   0.967  0.00  0.00    +0.065 A 
ATOM     19  C   LIG    1       -8.764   0.333   2.200  0.00  0.00    +0.167 A 
ATOM     20  O   LIG    1       -9.914   0.046   2.865  0.00  0.00    -0.453 OA
ATOM     21  C   LIG    1       -9.514  -0.410   4.130  0.00  0.00    +0.466 C 
ATOM     22  O   LIG    1       -8.142  -0.695   4.068  0.00  0.00    -0.453 OA
ATOM     23  C   LIG    1       -7.698  -0.112   2.924  0.00  0.00    +0.167 A 
ATOM     24  C   LIG    1       -6.394   0.024   2.464  0.00  0.00    +0.056 A 
ENDBRANCH   2  15
BRANCH   8  25
ATOM     25  C   LIG    1        1.539   0.223  -0.928  0.00  0.00    +0.160 C 
ATOM     26  O   LIG    1        2.056   1.296  -1.240  0.00  0.00    -0.292 OA
ATOM     27  C   LIG    1        2.363  -1.055  -1.104  0.00  0.00    +0.091 C 
ENDBRANCH   8  25
TORSDOF 2
