REMARK  Name = DB18002
REMARK                            x       y       z     vdW  Elec       q    Type
REMARK                         _______ _______ _______ _____ _____    ______ ____
ROOT
ATOM      1  N   LIG    1        2.716  -2.193   0.850  0.00  0.00    -0.325 N 
ATOM      2  C   LIG    1        3.937  -1.639   1.171  0.00  0.00    +0.151 A 
ATOM      3  C   LIG    1        4.897  -0.916   0.361  0.00  0.00    +0.282 A 
ATOM      4  O   LIG    1        4.786  -0.673  -0.843  0.00  0.00    -0.265 OA
ATOM      5  N   LIG    1        5.984  -0.544   1.139  0.00  0.00    -0.262 N 
ATOM      6  C   LIG    1        7.032   0.229   0.430  0.00  0.00    +0.157 C 
ATOM      7  C   LIG    1        6.223  -0.736   2.497  0.00  0.00    +0.333 A 
ATOM      8  O   LIG    1        7.210  -0.281   3.088  0.00  0.00    -0.246 OA
ATOM      9  N   LIG    1        5.273  -1.487   3.150  0.00  0.00    -0.280 N 
ATOM     10  C   LIG    1        5.482  -1.800   4.573  0.00  0.00    +0.155 C 
ATOM     11  C   LIG    1        4.121  -1.930   2.513  0.00  0.00    +0.168 A 
ATOM     12  N   LIG    1        3.118  -2.628   3.022  0.00  0.00    -0.218 NA
ATOM     13  C   LIG    1        2.292  -2.787   2.017  0.00  0.00    +0.202 A 
ENDROOT
BRANCH   1  14
ATOM     14  C   LIG    1        2.002  -2.183  -0.427  0.00  0.00    +0.123 C 
BRANCH  14  15
ATOM     15  C   LIG    1        1.443  -0.785  -0.776  0.00  0.00    +0.022 C 
BRANCH  15  16
ATOM     16  C   LIG    1        0.459  -0.217   0.265  0.00  0.00    +0.009 C 
BRANCH  16  17
ATOM     17  C   LIG    1       -0.128   1.145  -0.161  0.00  0.00    +0.074 C 
BRANCH  17  19
ATOM     18  C   LIG    1       -1.735   3.096   0.457  0.00  0.00    +0.086 C 
ATOM     19  C   LIG    1       -1.121   1.755   0.838  0.00  0.00    +0.130 C 
ATOM     20  O   LIG    1       -1.418   1.203   1.898  0.00  0.00    -0.298 OA
ENDBRANCH  17  19
ENDBRANCH  16  17
ENDBRANCH  15  16
ENDBRANCH  14  15
ENDBRANCH   1  14
TORSDOF 5
