REMARK  Name = DB18250
REMARK                            x       y       z     vdW  Elec       q    Type
REMARK                         _______ _______ _______ _____ _____    ______ ____
ROOT
ATOM      1  O   LIG    1        1.409   0.002  -0.048  0.00  0.00    -0.484 OA
ENDROOT
BRANCH   1   6
ATOM      2  C   LIG    1       -2.771  -0.007  -0.053  0.00  0.00    -0.045 A 
ATOM      3  C   LIG    1       -2.070   1.195   0.075  0.00  0.00    +0.027 A 
ATOM      4  C   LIG    1       -0.675   1.204   0.075  0.00  0.00    +0.084 A 
ATOM      5 CL   LIG    1        0.157   2.712   0.222  0.00  0.00    -0.080 Cl
ATOM      6  C   LIG    1        0.035   0.001  -0.044  0.00  0.00    +0.157 A 
ATOM      7  C   LIG    1       -0.667  -1.204  -0.181  0.00  0.00    +0.084 A 
ATOM      8 CL   LIG    1        0.177  -2.703  -0.353  0.00  0.00    -0.080 Cl
ATOM      9  C   LIG    1       -2.062  -1.205  -0.182  0.00  0.00    +0.027 A 
BRANCH   2  10
ATOM     10  C   LIG    1       -4.295  -0.007  -0.057  0.00  0.00    +0.030 C 
BRANCH  10  11
ATOM     11  CA  LIG    1       -4.928   0.567  -1.352  0.00  0.00    +0.040 C 
BRANCH  11  12
ATOM     12  N   LIG    1       -6.423   0.824  -1.090  0.00  0.00    +0.387 N 
ATOM     13  H1  LIG    1       -6.888  -0.042  -0.859  0.00  0.00    -0.089 HD
ATOM     14  H2  LIG    1       -6.530   1.465  -0.317  0.00  0.00    -0.089 HD
ATOM     15  H3  LIG    1       -6.854   1.230  -1.908  0.00  0.00    -0.089 HD
ENDBRANCH  11  12
BRANCH  11  16
ATOM     16  C   LIG    1       -4.794  -0.396  -2.563  0.00  0.00    +0.290 C 
ATOM     17  OXT LIG    1       -3.694  -0.378  -3.160  0.00  0.00    -0.253 OA
BRANCH  16  18
ATOM     18  O   LIG    1       -5.745  -1.151  -2.880  0.00  0.00    -0.482 OA
ATOM     19  H   LIG    1       -5.659  -1.730  -3.611  0.00  0.00    +0.295 HD
ENDBRANCH  16  18
ENDBRANCH  11  16
ENDBRANCH  10  11
ENDBRANCH   2  10
ENDBRANCH   1   6
BRANCH   1  20
ATOM     20  C   LIG    1        1.998  -0.085   1.245  0.00  0.00    +0.268 C 
BRANCH  20  21
ATOM     21  C   LIG    1        3.508  -0.003   1.112  0.00  0.00    +0.036 A 
ATOM     22  C   LIG    1        4.178   1.052   0.479  0.00  0.00    +0.162 A 
ATOM     23  O   LIG    1        3.652   2.153  -0.124  0.00  0.00    -0.435 OA
ATOM     24  C   LIG    1        4.748   2.836  -0.579  0.00  0.00    +0.228 A 
ATOM     25  N   LIG    1        5.911   2.271  -0.310  0.00  0.00    -0.209 NA
ATOM     26  C   LIG    1        5.573   1.130   0.362  0.00  0.00    +0.112 A 
ATOM     27  C   LIG    1        6.369   0.111   0.904  0.00  0.00    +0.054 A 
ATOM     28  C   LIG    1        5.725  -0.956   1.543  0.00  0.00    +0.027 A 
ATOM     29  C   LIG    1        4.328  -1.009   1.642  0.00  0.00    +0.033 A 
BRANCH  24  30
ATOM     30  C   LIG    1        4.522   4.117  -1.319  0.00  0.00    +0.037 A 
ATOM     31  C   LIG    1        3.221   4.590  -1.530  0.00  0.00    +0.013 A 
ATOM     32  C   LIG    1        3.009   5.780  -2.222  0.00  0.00    +0.001 A 
ATOM     33  C   LIG    1        4.098   6.499  -2.708  0.00  0.00    +0.000 A 
ATOM     34  C   LIG    1        5.397   6.040  -2.506  0.00  0.00    +0.001 A 
ATOM     35  C   LIG    1        5.608   4.851  -1.812  0.00  0.00    +0.013 A 
ENDBRANCH  24  30
BRANCH  28  36
ATOM     36  N   LIG    1        6.491  -1.984   2.089  0.00  0.00    -0.358 N 
ATOM     37  H   LIG    1        6.029  -2.778   2.508  0.00  0.00    +0.142 HD
ATOM     38  H   LIG    1        7.495  -1.964   1.983  0.00  0.00    +0.142 HD
ENDBRANCH  28  36
ENDBRANCH  20  21
ENDBRANCH   1  20
TORSDOF 10
