REMARK  Name = DB18248
REMARK                            x       y       z     vdW  Elec       q    Type
REMARK                         _______ _______ _______ _____ _____    ______ ____
ROOT
ATOM      1  C   LIG    1        5.809  -0.023  -0.007  0.00  0.00    +0.136 A 
ATOM      2  O   LIG    1        6.429  -0.020  -1.225  0.00  0.00    -0.454 OA
ATOM      3  C   LIG    1        7.777  -0.012  -0.997  0.00  0.00    +0.148 A 
ATOM      4  C   LIG    1        8.784  -0.003  -1.986  0.00  0.00    +0.082 A 
ATOM      5  C   LIG    1       10.100   0.006  -1.486  0.00  0.00    +0.055 A 
ATOM      6  C   LIG    1       10.385   0.007  -0.120  0.00  0.00    +0.125 A 
ATOM      7  F   LIG    1       11.674   0.017   0.289  0.00  0.00    -0.205 F 
ATOM      8  C   LIG    1        9.368  -0.001   0.833  0.00  0.00    +0.050 A 
ATOM      9  C   LIG    1        8.038  -0.011   0.393  0.00  0.00    +0.024 A 
ATOM     10  C   LIG    1        6.752  -0.019   1.015  0.00  0.00    +0.058 A 
ENDROOT
BRANCH   1  14
ATOM     11  C   LIG    1        1.520  -0.006   0.012  0.00  0.00    -0.064 A 
ATOM     12  C   LIG    1        2.208  -0.019  -1.202  0.00  0.00    +0.002 A 
ATOM     13  C   LIG    1        3.600  -0.024  -1.213  0.00  0.00    +0.012 A 
ATOM     14  C   LIG    1        4.315  -0.024  -0.010  0.00  0.00    +0.017 A 
ATOM     15  C   LIG    1        3.620  -0.023   1.204  0.00  0.00    +0.012 A 
ATOM     16  C   LIG    1        2.228  -0.017   1.216  0.00  0.00    +0.002 A 
BRANCH  11  17
ATOM     17  C   LIG    1        0.001  -0.015   0.022  0.00  0.00    -0.047 C 
BRANCH  17  19
ATOM     18  C   LIG    1       -2.137   1.411   0.004  0.00  0.00    -0.100 C 
ATOM     19  N   LIG    1       -0.603   1.398   0.010  0.00  0.00    +0.380 N 
ATOM     20  H   LIG    1       -0.272   1.899   0.823  0.00  0.00    -0.086 HD
ATOM     21  H   LIG    1       -0.266   1.887  -0.808  0.00  0.00    -0.086 HD
ENDBRANCH  17  19
ENDBRANCH  11  17
ENDBRANCH   1  14
BRANCH   4  22
ATOM     22  C   LIG    1        8.505  -0.002  -3.474  0.00  0.00    +0.245 C 
ATOM     23  O   LIG    1        7.353  -0.002  -3.906  0.00  0.00    -0.270 OA
ATOM     24  N   LIG    1        9.552  -0.001  -4.307  0.00  0.00    -0.325 N 
ATOM     25  H   LIG    1        9.402   0.000  -5.305  0.00  0.00    +0.145 HD
ATOM     26  H   LIG    1       10.494  -0.003  -3.946  0.00  0.00    +0.145 HD
ENDBRANCH   4  22
TORSDOF 4
