REMARK  Name = DB18514
REMARK                            x       y       z     vdW  Elec       q    Type
REMARK                         _______ _______ _______ _____ _____    ______ ____
ROOT
ATOM      1  C   LIG    1        2.910   1.707  -3.103  0.00  0.00    +0.186 A 
ATOM      2  C   LIG    1        2.051   1.605  -4.214  0.00  0.00    +0.167 A 
ATOM      3  N   LIG    1        1.596   2.711  -4.867  0.00  0.00    -0.217 NA
ATOM      4  C   LIG    1        2.060   3.911  -4.439  0.00  0.00    +0.223 A 
ATOM      5  N   LIG    1        2.915   4.115  -3.407  0.00  0.00    -0.240 NA
ATOM      6  C   LIG    1        3.327   3.001  -2.750  0.00  0.00    +0.162 A 
ENDROOT
BRANCH   2   7
ATOM      7  N   LIG    1        1.529   0.377  -4.653  0.00  0.00    -0.311 N 
ATOM      8  C   LIG    1        0.792   0.042  -5.871  0.00  0.00    +0.115 C 
ATOM      9  C   LIG    1        1.235  -1.416  -5.774  0.00  0.00    +0.005 C 
ATOM     10  C   LIG    1        0.097  -2.400  -5.385  0.00  0.00    +0.029 C 
ATOM     11  C   LIG    1        0.586  -3.868  -5.327  0.00  0.00    +0.108 C 
ATOM     12  N   LIG    1        1.216  -4.169  -6.627  0.00  0.00    -0.303 N 
ATOM     13  C   LIG    1        0.471  -4.682  -7.650  0.00  0.00    +0.202 C 
ATOM     14  O   LIG    1       -0.698  -5.034  -7.476  0.00  0.00    -0.277 OA
ATOM     15  C   LIG    1        2.454  -3.401  -6.852  0.00  0.00    +0.108 C 
ATOM     16  C   LIG    1        2.048  -1.916  -6.998  0.00  0.00    +0.029 C 
ATOM     17  C   LIG    1        2.096  -0.969  -4.593  0.00  0.00    +0.115 C 
BRANCH  13  18
ATOM     18  C   LIG    1        1.140  -4.971  -9.026  0.00  0.00    +0.024 C 
ATOM     19  C   LIG    1        0.178  -5.425 -10.181  0.00  0.00    +0.009 C 
ATOM     20  C   LIG    1        1.060  -5.587 -11.428  0.00  0.00    -0.076 C 
ATOM     21  C   LIG    1        2.200  -6.598 -11.205  0.00  0.00    +0.015 C 
ATOM     22  C   LIG    1        2.062  -7.244  -9.791  0.00  0.00    -0.067 C 
ATOM     23  C   LIG    1        0.655  -7.875  -9.616  0.00  0.00    -0.015 C 
ATOM     24  C   LIG    1        0.863  -4.928 -12.582  0.00  0.00    +0.008 C 
ATOM     25  C   LIG    1       -0.453  -6.833  -9.937  0.00  0.00    +0.005 C 
ATOM     26  N   LIG    1        2.170  -6.105  -8.743  0.00  0.00    +0.389 N 
ATOM     27  H   LIG    1        2.003  -6.491  -7.824  0.00  0.00    -0.084 HD
ATOM     28  H   LIG    1        3.105  -5.724  -8.760  0.00  0.00    -0.084 HD
ENDBRANCH  13  18
ENDBRANCH   2   7
BRANCH   1  29
ATOM     29  O   LIG    1        3.326   0.583  -2.417  0.00  0.00    -0.450 OA
BRANCH  29  31
ATOM     30  C   LIG    1        2.224   0.482  -0.248  0.00  0.00    +0.082 A 
ATOM     31  C   LIG    1        3.380   0.621  -1.041  0.00  0.00    +0.141 A 
ATOM     32  C   LIG    1        4.623   0.807  -0.429  0.00  0.00    +0.050 A 
ATOM     33  C   LIG    1        4.724   0.874   0.959  0.00  0.00    +0.042 A 
ATOM     34  C   LIG    1        3.582   0.745   1.747  0.00  0.00    +0.124 A 
ATOM     35  F   LIG    1        3.680   0.806   3.095  0.00  0.00    -0.205 F 
ATOM     36  C   LIG    1        2.340   0.544   1.148  0.00  0.00    +0.055 A 
BRANCH  30  38
ATOM     37  N   LIG    1       -0.124   1.126  -0.748  0.00  0.00    -0.292 N 
ATOM     38  C   LIG    1        0.880   0.205  -0.874  0.00  0.00    +0.251 C 
ATOM     39  O   LIG    1        0.740  -0.870  -1.460  0.00  0.00    -0.270 OA
BRANCH  37  41
ATOM     40  C   LIG    1       -2.188  -0.330  -0.430  0.00  0.00    +0.028 C 
ATOM     41  C   LIG    1       -1.509   0.825  -1.197  0.00  0.00    +0.070 C 
ATOM     42  C   LIG    1       -1.660   0.717  -2.731  0.00  0.00    +0.028 C 
ENDBRANCH  37  41
BRANCH  37  43
ATOM     43  C   LIG    1        0.087   2.497  -0.217  0.00  0.00    +0.070 C 
ATOM     44  C   LIG    1       -0.212   3.604  -1.247  0.00  0.00    +0.028 C 
ATOM     45  C   LIG    1       -0.630   2.735   1.128  0.00  0.00    +0.028 C 
ENDBRANCH  37  43
ENDBRANCH  30  38
ENDBRANCH  29  31
ENDBRANCH   1  29
TORSDOF 7
