REMARK  Name = DB18709
REMARK                            x       y       z     vdW  Elec       q    Type
REMARK                         _______ _______ _______ _____ _____    ______ ____
ROOT
ATOM      1  C   LIG    1       -5.725  -1.654  -0.023  0.00  0.00    +0.093 A 
ATOM      2  N   LIG    1       -4.544  -0.983  -0.015  0.00  0.00    -0.243 NA
ATOM      3  C   LIG    1       -3.368  -1.671  -0.009  0.00  0.00    +0.100 A 
ATOM      4  C   LIG    1       -3.342  -3.085  -0.016  0.00  0.00    +0.093 A 
ATOM      5  C   LIG    1       -2.408  -4.154  -0.015  0.00  0.00    +0.051 A 
ATOM      6  C   LIG    1       -3.186  -5.310  -0.026  0.00  0.00    +0.135 A 
ATOM      7  N   LIG    1       -4.481  -5.077  -0.031  0.00  0.00    -0.175 NA
ATOM      8  N   LIG    1       -4.593  -3.729  -0.026  0.00  0.00    -0.236 N 
ATOM      9  C   LIG    1       -5.780  -3.046  -0.029  0.00  0.00    +0.141 A 
ENDROOT
BRANCH   1  14
ATOM     10  C   LIG    1      -10.496   0.013  -0.002  0.00  0.00    +0.172 C 
ATOM     11  N   LIG    1       -9.048  -0.092  -0.012  0.00  0.00    -0.274 N 
ATOM     12  N   LIG    1       -8.310   1.022  -0.016  0.00  0.00    -0.179 NA
ATOM     13  C   LIG    1       -7.069   0.591  -0.021  0.00  0.00    +0.144 A 
ATOM     14  C   LIG    1       -6.958  -0.813  -0.021  0.00  0.00    +0.039 A 
ATOM     15  C   LIG    1       -8.283  -1.229  -0.017  0.00  0.00    +0.118 A 
ENDBRANCH   1  14
BRANCH   3  16
ATOM     16  C   LIG    1       -2.139  -0.819   0.007  0.00  0.00    +0.040 A 
ATOM     17  C   LIG    1       -0.806  -1.205   0.058  0.00  0.00    +0.119 A 
ATOM     18  N   LIG    1       -0.055  -0.058   0.071  0.00  0.00    -0.264 N 
ATOM     19  N   LIG    1       -0.817   1.040  -0.002  0.00  0.00    -0.178 NA
ATOM     20  C   LIG    1       -2.049   0.586  -0.028  0.00  0.00    +0.144 A 
BRANCH  18  21
ATOM     21  C   LIG    1        1.410   0.062   0.085  0.00  0.00    +0.079 C 
ATOM     22  C   LIG    1        2.196  -0.953   0.951  0.00  0.00    +0.049 C 
ATOM     23  C   LIG    1        2.239   0.097   2.066  0.00  0.00    +0.096 C 
ATOM     24  C   LIG    1        2.027   1.163   0.987  0.00  0.00    +0.049 C 
BRANCH  23  25
ATOM     25  C   LIG    1        3.551   0.191   2.727  0.00  0.00    +0.066 C 
ATOM     26  N   LIG    1        4.582   0.264   3.247  0.00  0.00    -0.196 NA
ENDBRANCH  23  25
BRANCH  21  27
ATOM     27  C   LIG    1        1.959   0.133  -1.360  0.00  0.00    +0.148 C 
BRANCH  27  28
ATOM     28  C   LIG    1        1.578   1.352  -2.094  0.00  0.00    +0.065 C 
ATOM     29  N   LIG    1        1.279   2.309  -2.670  0.00  0.00    -0.196 NA
ENDBRANCH  27  28
ENDBRANCH  21  27
ENDBRANCH  18  21
ENDBRANCH   3  16
TORSDOF 6
