REMARK  Name = DB18409
REMARK                            x       y       z     vdW  Elec       q    Type
REMARK                         _______ _______ _______ _____ _____    ______ ____
ROOT
ATOM      1  C   LIG    1       -2.220   1.305   0.060  0.00  0.00    +0.042 A 
ATOM      2  C   LIG    1       -2.900   0.102   0.284  0.00  0.00    +0.076 A 
ATOM      3  N   LIG    1       -4.233  -0.227   0.380  0.00  0.00    -0.325 N 
ATOM      4  H   LIG    1       -5.044   0.370   0.303  0.00  0.00    +0.169 HD
ATOM      5  C   LIG    1       -4.315  -1.587   0.608  0.00  0.00    +0.201 A 
ATOM      6  N   LIG    1       -3.138  -2.155   0.670  0.00  0.00    -0.214 NA
ATOM      7  C   LIG    1       -2.243  -1.135   0.474  0.00  0.00    +0.092 A 
ATOM      8  C   LIG    1       -0.846  -1.186   0.445  0.00  0.00    +0.041 A 
ATOM      9  C   LIG    1       -0.128  -0.003   0.232  0.00  0.00    +0.023 A 
ATOM     10  C   LIG    1       -0.814   1.213   0.054  0.00  0.00    +0.139 A 
ATOM     11  F   LIG    1       -0.090   2.348  -0.102  0.00  0.00    -0.204 F 
ENDROOT
BRANCH   5  12
ATOM     12  N   LIG    1       -5.495  -2.302   0.759  0.00  0.00    -0.240 N 
ATOM     13  H   LIG    1       -5.386  -3.293   0.920  0.00  0.00    +0.159 HD
ATOM     14  C   LIG    1       -6.751  -1.813   0.697  0.00  0.00    +0.306 C 
ATOM     15  N   LIG    1       -7.655  -2.794   0.853  0.00  0.00    -0.299 N 
ATOM     16  H   LIG    1       -7.330  -3.716   1.103  0.00  0.00    +0.150 HD
ATOM     17  O   LIG    1       -7.051  -0.632   0.505  0.00  0.00    -0.252 OA
BRANCH  15  18
ATOM     18  C   LIG    1       -9.101  -2.641   0.696  0.00  0.00    +0.102 C 
ATOM     19  C   LIG    1       -9.550  -2.537  -0.770  0.00  0.00    +0.024 C 
ENDBRANCH  15  18
ENDBRANCH   5  12
BRANCH   9  20
ATOM     20  C   LIG    1        1.361  -0.060   0.209  0.00  0.00    +0.021 A 
ATOM     21  C   LIG    1        2.122   0.552  -0.796  0.00  0.00    +0.123 A 
ATOM     22  N   LIG    1        3.478   0.505  -0.833  0.00  0.00    -0.237 NA
ATOM     23  C   LIG    1        4.090  -0.194   0.164  0.00  0.00    +0.161 A 
ATOM     24  N   LIG    1        3.448  -0.816   1.192  0.00  0.00    -0.237 NA
ATOM     25  C   LIG    1        2.092  -0.744   1.190  0.00  0.00    +0.123 A 
BRANCH  23  26
ATOM     26  C   LIG    1        5.630  -0.238   0.157  0.00  0.00    +0.134 C 
ATOM     27  C   LIG    1        6.208  -1.559   0.730  0.00  0.00    +0.050 C 
ATOM     28  C   LIG    1        6.186   0.952   0.964  0.00  0.00    +0.050 C 
BRANCH  26  29
ATOM     29  O   LIG    1        6.116  -0.021  -1.171  0.00  0.00    -0.273 OA
BRANCH  29  30
ATOM     30  P   LIG    1        6.201  -1.254  -2.441  0.00  0.00    +0.473 P 
ATOM     31  O   LIG    1        6.446  -0.476  -3.747  0.00  0.00    -0.227 OA
BRANCH  30  32
ATOM     32  O   LIG    1        4.846  -1.985  -2.428  0.00  0.00    -0.303 OA
ATOM     33  H   LIG    1        4.741  -2.457  -1.587  0.00  0.00    +0.222 HD
ENDBRANCH  30  32
BRANCH  30  34
ATOM     34  O   LIG    1        7.381  -2.172  -2.071  0.00  0.00    -0.303 OA
ATOM     35  H   LIG    1        7.180  -2.639  -1.244  0.00  0.00    +0.222 HD
ENDBRANCH  30  34
ENDBRANCH  29  30
ENDBRANCH  26  29
ENDBRANCH  23  26
ENDBRANCH   9  20
BRANCH   1  36
ATOM     36  C   LIG    1       -2.910   2.655  -0.122  0.00  0.00    +0.153 C 
ATOM     37  O   LIG    1       -2.315   3.499  -1.115  0.00  0.00    -0.372 OA
ATOM     38  C   LIG    1       -2.147   4.829  -0.621  0.00  0.00    +0.161 C 
ATOM     39  C   LIG    1       -3.094   4.912   0.570  0.00  0.00    +0.031 C 
ATOM     40  C   LIG    1       -2.987   3.518   1.140  0.00  0.00    +0.039 C 
ENDBRANCH   1  36
TORSDOF 9
