REMARK  Name = DB18067
REMARK                            x       y       z     vdW  Elec       q    Type
REMARK                         _______ _______ _______ _____ _____    ______ ____
ROOT
ATOM      1  C   LIG    1        1.375   0.096   0.000  0.00  0.00    +0.175 C 
ATOM      2  C   LIG    1        1.867  -0.639  -1.262  0.00  0.00    +0.045 C 
ATOM      3  C   LIG    1        3.409  -0.711  -1.291  0.00  0.00    +0.012 C 
ATOM      4  C   LIG    1        3.981  -1.355   0.000  0.00  0.00    +0.019 C 
ATOM      5  C   LIG    1        3.409  -0.711   1.291  0.00  0.00    +0.012 C 
ATOM      6  C   LIG    1        1.867  -0.639   1.262  0.00  0.00    +0.045 C 
ENDROOT
BRANCH   4   7
ATOM      7  C   LIG    1        5.512  -1.391   0.000  0.00  0.00    -0.044 A 
ATOM      8  C   LIG    1        6.186  -2.615   0.000  0.00  0.00    +0.007 A 
ATOM      9  C   LIG    1        7.578  -2.646   0.000  0.00  0.00    +0.046 A 
ATOM     10  C   LIG    1        8.316  -1.462   0.000  0.00  0.00    +0.130 A 
ATOM     11  C   LIG    1        7.637  -0.234   0.000  0.00  0.00    +0.046 A 
ATOM     12  C   LIG    1        6.245  -0.201   0.000  0.00  0.00    +0.007 A 
BRANCH  10  13
ATOM     13  O   LIG    1        9.693  -1.600   0.000  0.00  0.00    -0.406 OA
BRANCH  13  14
ATOM     14  C   LIG    1       10.539  -0.451   0.000  0.00  0.00    +0.575 C 
ATOM     15  F   LIG    1       10.370   0.288   1.099  0.00  0.00    -0.133 F 
ATOM     16  F   LIG    1       10.370   0.288  -1.099  0.00  0.00    -0.133 F 
ATOM     17  F   LIG    1       11.798  -0.887   0.000  0.00  0.00    -0.133 F 
ENDBRANCH  13  14
ENDBRANCH  10  13
ENDBRANCH   4   7
BRANCH   1  18
ATOM     18  O   LIG    1       -0.055   0.126   0.000  0.00  0.00    -0.472 OA
BRANCH  18  20
ATOM     19  C   LIG    1       -2.088   1.604   0.000  0.00  0.00    +0.232 A 
ATOM     20  C   LIG    1       -0.708   1.340   0.000  0.00  0.00    +0.246 A 
ATOM     21  N   LIG    1       -0.111   2.576   0.000  0.00  0.00    -0.226 N 
ATOM     22  H   LIG    1        0.884   2.749   0.000  0.00  0.00    +0.194 HD
ATOM     23  N   LIG    1       -1.009   3.554   0.000  0.00  0.00    -0.065 NA
ATOM     24  N   LIG    1       -2.241   2.930   0.000  0.00  0.00    -0.119 NA
BRANCH  19  25
ATOM     25  C   LIG    1       -3.211   0.632   0.000  0.00  0.00    +0.363 C 
ATOM     26  O   LIG    1       -2.926  -0.588   0.000  0.00  0.00    -0.243 OA
BRANCH  25  27
ATOM     27  O   LIG    1       -4.382   1.081   0.000  0.00  0.00    -0.476 OA
ATOM     28  H   LIG    1       -4.917   0.993  -0.764  0.00  0.00    +0.295 HD
ENDBRANCH  25  27
ENDBRANCH  19  25
ENDBRANCH  18  20
ENDBRANCH   1  18
TORSDOF 7
