REMARK  Name = DB18030
REMARK                            x       y       z     vdW  Elec       q    Type
REMARK                         _______ _______ _______ _____ _____    ______ ____
ROOT
ATOM      1  C   LIG    1        1.420  -0.079   0.053  0.00  0.00    +0.056 C 
ATOM      2  N   LIG    1        2.054   0.783  -0.979  0.00  0.00    -0.182 NA
ATOM      3  H   LIG    1        2.939   1.163  -0.633  0.00  0.00    +0.149 HD
ATOM      4  S   LIG    1        2.196   0.212  -2.644  0.00  0.00    +0.061 S 
ATOM      5  O   LIG    1        0.912  -0.365  -3.058  0.00  0.00    -0.153 OA
ATOM      6  O   LIG    1        2.769   1.326  -3.408  0.00  0.00    -0.153 OA
ATOM      7  C   LIG    1        3.403  -1.126  -2.730  0.00  0.00    +0.130 A 
ATOM      8  C   LIG    1        3.968  -1.312  -3.997  0.00  0.00    +0.077 A 
ATOM      9  C   LIG    1        4.956  -2.276  -4.227  0.00  0.00    +0.136 A 
ATOM     10  C   LIG    1        5.392  -3.049  -3.148  0.00  0.00    +0.051 A 
ATOM     11  C   LIG    1        4.817  -2.882  -1.890  0.00  0.00    +0.043 A 
ATOM     12  C   LIG    1        3.805  -1.938  -1.641  0.00  0.00    +0.062 A 
ATOM     13  N   LIG    1        3.263  -1.840  -0.338  0.00  0.00    -0.297 N 
ATOM     14  C   LIG    1        1.823  -1.566  -0.180  0.00  0.00    +0.134 C 
ENDROOT
BRANCH  13  15
ATOM     15  C   LIG    1        4.026  -2.075   0.829  0.00  0.00    +0.034 A 
ATOM     16  C   LIG    1        5.334  -1.571   0.915  0.00  0.00    +0.023 A 
ATOM     17  C   LIG    1        6.112  -1.782   2.050  0.00  0.00    +0.002 A 
ATOM     18  C   LIG    1        5.593  -2.511   3.114  0.00  0.00    +0.000 A 
ATOM     19  C   LIG    1        4.307  -3.038   3.046  0.00  0.00    +0.002 A 
ATOM     20  C   LIG    1        3.533  -2.827   1.909  0.00  0.00    +0.023 A 
ENDBRANCH  13  15
BRANCH  10  21
ATOM     21  S   LIG    1        6.646  -4.287  -3.338  0.00  0.00    -0.125 S 
ATOM     22  C   LIG    1        8.091  -3.453  -4.047  0.00  0.00    +0.090 C 
ENDBRANCH  10  21
BRANCH   1  23
ATOM     23  C   LIG    1       -0.134   0.041  -0.051  0.00  0.00    +0.025 C 
BRANCH  23  24
ATOM     24  C   LIG    1       -0.723   1.466   0.063  0.00  0.00    +0.002 C 
BRANCH  24  26
ATOM     25  C   LIG    1       -2.846   2.901   0.043  0.00  0.00    +0.004 C 
ATOM     26  C   LIG    1       -2.256   1.489  -0.075  0.00  0.00    -0.003 C 
ENDBRANCH  24  26
ENDBRANCH  23  24
ENDBRANCH   1  23
BRANCH   9  27
ATOM     27  O   LIG    1        5.532  -2.471  -5.468  0.00  0.00    -0.490 OA
BRANCH  27  28
ATOM     28  C   LIG    1        4.755  -2.263  -6.652  0.00  0.00    +0.240 C 
BRANCH  28  29
ATOM     29  C   LIG    1        3.469  -3.129  -6.753  0.00  0.00    +0.161 C 
BRANCH  29  30
ATOM     30  C   LIG    1        3.684  -4.630  -6.454  0.00  0.00    +0.308 C 
ATOM     31  O   LIG    1        2.770  -5.221  -5.836  0.00  0.00    -0.251 OA
BRANCH  30  32
ATOM     32  O   LIG    1        4.727  -5.185  -6.871  0.00  0.00    -0.481 OA
ATOM     33  H   LIG    1        4.876  -6.094  -6.700  0.00  0.00    +0.295 HD
ENDBRANCH  30  32
ENDBRANCH  29  30
ENDBRANCH  28  29
ENDBRANCH  27  28
ENDBRANCH   9  27
BRANCH   1  34
ATOM     34  C   LIG    1        1.931   0.450   1.431  0.00  0.00    +0.025 C 
BRANCH  34  35
ATOM     35  C   LIG    1        1.315  -0.190   2.696  0.00  0.00    +0.002 C 
BRANCH  35  36
ATOM     36  C   LIG    1        2.043   0.224   3.986  0.00  0.00    -0.003 C 
ATOM     37  C   LIG    1        1.449  -0.424   5.244  0.00  0.00    +0.004 C 
ENDBRANCH  35  36
ENDBRANCH  34  35
ENDBRANCH   1  34
TORSDOF 13
