REMARK  Name = DB18038
REMARK                            x       y       z     vdW  Elec       q    Type
REMARK                         _______ _______ _______ _____ _____    ______ ____
ROOT
ATOM      1  C   LIG    1        1.541   0.037  -0.026  0.00  0.00    +0.154 A 
ATOM      2  S   LIG    1        2.366   1.566   0.041  0.00  0.00    -0.073 S 
ATOM      3  C   LIG    1        3.929   0.808   0.058  0.00  0.00    -0.007 A 
ATOM      4  C   LIG    1        3.767  -0.573   0.009  0.00  0.00    +0.021 A 
ATOM      5  C   LIG    1        2.441  -1.034  -0.017  0.00  0.00    +0.016 A 
ENDROOT
BRANCH   5   6
ATOM      6  C   LIG    1        2.103  -2.486  -0.042  0.00  0.00    -0.015 A 
ATOM      7  C   LIG    1        1.275  -3.040   0.937  0.00  0.00    +0.009 A 
ATOM      8  C   LIG    1        0.978  -4.400   0.914  0.00  0.00    +0.006 A 
ATOM      9  C   LIG    1        1.507  -5.216  -0.088  0.00  0.00    -0.028 A 
ATOM     10  C   LIG    1        2.344  -4.665  -1.063  0.00  0.00    +0.006 A 
ATOM     11  C   LIG    1        2.640  -3.304  -1.040  0.00  0.00    +0.009 A 
BRANCH   9  12
ATOM     12  C   LIG    1        1.192  -6.708  -0.090  0.00  0.00    +0.157 C 
BRANCH  12  13
ATOM     13  N   LIG    1        0.778  -7.235  -1.384  0.00  0.00    -0.332 N 
ATOM     14  C   LIG    1        1.453  -8.121  -2.189  0.00  0.00    +0.199 A 
ATOM     15  N   LIG    1        0.820  -8.403  -3.304  0.00  0.00    -0.244 NA
ATOM     16  C   LIG    1       -0.292  -7.691  -3.245  0.00  0.00    +0.130 A 
ATOM     17  C   LIG    1       -0.369  -6.945  -2.078  0.00  0.00    +0.107 A 
ENDBRANCH  12  13
ENDBRANCH   9  12
ENDBRANCH   5   6
BRANCH   1  18
ATOM     18  S   LIG    1       -0.280  -0.086  -0.101  0.00  0.00    +0.084 S 
ATOM     19  O   LIG    1       -0.507  -1.123  -1.115  0.00  0.00    -0.149 OA
ATOM     20  O   LIG    1       -0.639  -0.407   1.286  0.00  0.00    -0.149 OA
BRANCH  18  22
ATOM     21  C   LIG    1       -2.065   1.581  -0.753  0.00  0.00    +0.420 C 
ATOM     22  N   LIG    1       -0.777   1.335  -0.542  0.00  0.00    -0.150 N 
ATOM     23  H   LIG    1       -0.121   2.059  -0.665  0.00  0.00    +0.180 HD
ATOM     24  O   LIG    1       -3.032   0.817  -0.668  0.00  0.00    -0.225 OA
BRANCH  21  25
ATOM     25  O   LIG    1       -2.226   2.878  -1.099  0.00  0.00    -0.449 OA
BRANCH  25  26
ATOM     26  C   LIG    1       -3.510   3.421  -1.391  0.00  0.00    +0.234 C 
BRANCH  26  27
ATOM     27  C   LIG    1       -3.384   4.930  -1.645  0.00  0.00    +0.041 C 
BRANCH  27  29
ATOM     28  C   LIG    1       -4.623   7.099  -2.209  0.00  0.00    +0.004 C 
ATOM     29  C   LIG    1       -4.735   5.588  -1.967  0.00  0.00    -0.000 C 
ENDBRANCH  27  29
ENDBRANCH  26  27
ENDBRANCH  25  26
ENDBRANCH  21  25
ENDBRANCH  18  22
ENDBRANCH   1  18
BRANCH   3  30
ATOM     30  C   LIG    1        5.209   1.619   0.111  0.00  0.00    +0.045 C 
BRANCH  30  31
ATOM     31  C   LIG    1        5.838   1.700   1.523  0.00  0.00    -0.012 C 
ATOM     32  C   LIG    1        7.215   2.386   1.474  0.00  0.00    +0.007 C 
ATOM     33  C   LIG    1        4.922   2.394   2.552  0.00  0.00    +0.007 C 
ENDBRANCH  30  31
ENDBRANCH   3  30
TORSDOF 11
