REMARK  Name = DB18529
REMARK                            x       y       z     vdW  Elec       q    Type
REMARK                         _______ _______ _______ _____ _____    ______ ____
ROOT
ATOM      1  CA  LIG    1        2.008  -1.492  -0.083  0.00  0.00    +0.037 C 
ENDROOT
BRANCH   1   2
ATOM      2  N   LIG    1        3.539  -1.339  -0.046  0.00  0.00    +0.387 N 
ATOM      3  H1  LIG    1        3.868  -0.933  -0.911  0.00  0.00    -0.089 HD
ATOM      4  H2  LIG    1        3.805  -0.732   0.716  0.00  0.00    -0.089 HD
ATOM      5  H3  LIG    1        3.976  -2.239   0.090  0.00  0.00    -0.089 HD
ENDBRANCH   1   2
BRANCH   1   6
ATOM      6  C   LIG    1        1.635  -2.450  -1.249  0.00  0.00    +0.290 C 
ATOM      7  OXT LIG    1        0.513  -2.997  -1.170  0.00  0.00    -0.253 OA
BRANCH   6   8
ATOM      8  O   LIG    1        2.426  -2.620  -2.207  0.00  0.00    -0.482 OA
ATOM      9  H   LIG    1        2.196  -3.199  -2.907  0.00  0.00    +0.295 HD
ENDBRANCH   6   8
ENDBRANCH   1   6
BRANCH   1  10
ATOM     10  C   LIG    1        1.379  -0.085  -0.245  0.00  0.00    +0.009 C 
BRANCH  10  11
ATOM     11  C   LIG    1       -0.118  -0.021   0.114  0.00  0.00    +0.112 C 
BRANCH  11  13
ATOM     12  C   LIG    1        0.030   2.637  -1.339  0.00  0.00    +0.132 C 
ATOM     13  S   LIG    1       -0.745   1.769   0.148  0.00  0.00    +0.043 S 
ATOM     14  N   LIG    1       -2.204   1.640  -0.304  0.00  0.00    -0.252 NA
ATOM     15  H   LIG    1       -2.513   0.683  -0.383  0.00  0.00    +0.197 HD
ATOM     16  O   LIG    1       -0.304   2.437   1.376  0.00  0.00    -0.248 OA
ENDBRANCH  11  13
ENDBRANCH  10  11
ENDBRANCH   1  10
TORSDOF 6
