REMARK  Name = DB18716
REMARK                            x       y       z     vdW  Elec       q    Type
REMARK                         _______ _______ _______ _____ _____    ______ ____
ROOT
ATOM      1  C   LIG    1       -2.222   1.350   0.819  0.00  0.00    +0.229 C 
ATOM      2  S   LIG    1       -0.520   1.847   0.193  0.00  0.00    -0.003 S 
ATOM      3  O   LIG    1        0.278   2.390   1.298  0.00  0.00    -0.172 OA
ATOM      4  O   LIG    1       -0.632   2.607  -1.057  0.00  0.00    -0.172 OA
ATOM      5  C   LIG    1       -0.002   0.046  -0.158  0.00  0.00    +0.130 C 
ATOM      6  C   LIG    1       -0.549  -0.315  -1.567  0.00  0.00    +0.039 C 
ATOM      7  C   LIG    1       -0.691  -0.715   1.049  0.00  0.00    +0.214 C 
ATOM      8  N   LIG    1       -1.857   0.079   1.475  0.00  0.00    -0.263 N 
ATOM      9  C   LIG    1       -2.149   0.547   2.758  0.00  0.00    +0.221 C 
ATOM     10  O   LIG    1       -2.038   0.057   3.879  0.00  0.00    -0.275 OA
ATOM     11  C   LIG    1       -2.670   1.896   2.192  0.00  0.00    +0.142 C 
ENDROOT
BRANCH   7  12
ATOM     12  C   LIG    1       -1.105  -2.195   0.796  0.00  0.00    +0.328 C 
ATOM     13  O   LIG    1       -0.386  -3.074   1.320  0.00  0.00    -0.249 OA
BRANCH  12  14
ATOM     14  O   LIG    1       -2.120  -2.446   0.105  0.00  0.00    -0.479 OA
ATOM     15  H   LIG    1       -2.374  -3.335  -0.050  0.00  0.00    +0.295 HD
ENDBRANCH  12  14
ENDBRANCH   7  12
BRANCH   5  16
ATOM     16  C   LIG    1        1.559  -0.005  -0.137  0.00  0.00    +0.135 C 
BRANCH  16  17
ATOM     17  N   LIG    1        2.116  -1.346   0.017  0.00  0.00    -0.221 NA
ATOM     18  N   LIG    1        2.024  -2.231  -1.000  0.00  0.00    -0.187 NA
ATOM     19  H   LIG    1        2.522  -1.896  -1.824  0.00  0.00    +0.161 HD
ATOM     20  N   LIG    1        2.611  -3.334  -0.492  0.00  0.00    -0.226 NA
ATOM     21  C   LIG    1        2.664  -4.536  -1.305  0.00  0.00    +0.125 C 
ATOM     22  C   LIG    1        3.079  -3.166   0.800  0.00  0.00    +0.114 C 
ATOM     23  C   LIG    1        2.757  -1.861   1.133  0.00  0.00    +0.114 C 
ENDBRANCH  16  17
ENDBRANCH   5  16
TORSDOF 4
