REMARK  Name = DB18408
REMARK                            x       y       z     vdW  Elec       q    Type
REMARK                         _______ _______ _______ _____ _____    ______ ____
ROOT
ATOM      1  C   LIG    1        1.924   0.400   5.416  0.00  0.00    +0.270 C 
ENDROOT
BRANCH   1   2
ATOM      2  C   LIG    1        3.249   0.645   4.672  0.00  0.00    +0.274 C 
BRANCH   2   3
ATOM      3  O   LIG    1        3.053   1.069   3.326  0.00  0.00    -0.447 OA
BRANCH   3   6
ATOM      4  N   LIG    1        2.367   0.870   1.222  0.00  0.00    -0.281 N 
ATOM      5  H   LIG    1        2.276   1.874   1.278  0.00  0.00    +0.152 HD
ATOM      6  C   LIG    1        2.814   0.183   2.338  0.00  0.00    +0.400 C 
ATOM      7  O   LIG    1        2.948  -1.040   2.438  0.00  0.00    -0.226 OA
BRANCH   4   8
ATOM      8  C   LIG    1        1.835   0.192   0.042  0.00  0.00    +0.107 C 
BRANCH   8   9
ATOM      9  C   LIG    1        0.378  -0.287   0.216  0.00  0.00    +0.023 C 
BRANCH   9  10
ATOM     10  C   LIG    1       -0.612   0.849   0.582  0.00  0.00    +0.062 C 
BRANCH  10  11
ATOM     11  C   LIG    1       -2.142   0.562   0.497  0.00  0.00    +0.267 C 
BRANCH  11  12
ATOM     12  O   LIG    1       -2.410   0.067  -0.808  0.00  0.00    -0.367 OA
ATOM     13  H   LIG    1       -2.671   0.816  -1.351  0.00  0.00    +0.212 HD
ENDBRANCH  11  12
BRANCH  11  14
ATOM     14  P   LIG    1       -2.639  -0.843   1.677  0.00  0.00    +0.371 P 
ATOM     15  O   LIG    1       -1.871  -2.108   1.355  0.00  0.00    -0.255 OA
BRANCH  14  16
ATOM     16  O   LIG    1       -4.229  -1.082   1.078  0.00  0.00    -0.322 OA
ATOM     17  H   LIG    1       -4.418  -1.497   0.217  0.00  0.00    +0.220 HD
ENDBRANCH  14  16
BRANCH  14  18
ATOM     18  O   LIG    1       -2.749  -0.305   3.086  0.00  0.00    -0.322 OA
ATOM     19  H   LIG    1       -3.279   0.507   3.082  0.00  0.00    +0.220 HD
ENDBRANCH  14  18
ENDBRANCH  11  14
BRANCH  11  20
ATOM     20  P   LIG    1       -3.053   2.273   0.497  0.00  0.00    +0.371 P 
ATOM     21  O   LIG    1       -2.724   2.860  -0.892  0.00  0.00    -0.255 OA
BRANCH  20  22
ATOM     22  O   LIG    1       -2.419   3.026   1.683  0.00  0.00    -0.322 OA
ATOM     23  H   LIG    1       -2.674   2.595   2.513  0.00  0.00    +0.220 HD
ENDBRANCH  20  22
BRANCH  20  24
ATOM     24  O   LIG    1       -4.533   1.890   0.685  0.00  0.00    -0.322 OA
ATOM     25  H   LIG    1       -4.663   1.531   1.577  0.00  0.00    +0.220 HD
ENDBRANCH  20  24
ENDBRANCH  11  20
ENDBRANCH  10  11
ENDBRANCH   9  10
ENDBRANCH   8   9
ENDBRANCH   4   8
ENDBRANCH   3   6
ENDBRANCH   2   3
ENDBRANCH   1   2
BRANCH   1  26
ATOM     26  O   LIG    1        1.305  -0.783   4.917  0.00  0.00    -0.489 OA
BRANCH  26  27
ATOM     27  C   LIG    1        0.042  -1.133   5.353  0.00  0.00    +0.123 A 
ATOM     28  C   LIG    1       -0.702  -0.401   6.289  0.00  0.00    +0.074 A 
ATOM     29  C   LIG    1       -1.990  -0.832   6.686  0.00  0.00    +0.075 A 
ATOM     30  N   LIG    1       -2.664  -0.084   7.604  0.00  0.00    -0.255 NA
ATOM     31  C   LIG    1       -3.893  -0.496   7.992  0.00  0.00    +0.112 A 
ATOM     32  C   LIG    1       -4.505  -1.647   7.510  0.00  0.00    +0.029 A 
ATOM     33  C   LIG    1       -3.840  -2.435   6.567  0.00  0.00    -0.003 A 
ATOM     34  C   LIG    1       -2.540  -2.030   6.130  0.00  0.00    +0.008 A 
ATOM     35  C   LIG    1       -1.760  -2.754   5.190  0.00  0.00    +0.014 A 
ATOM     36  C   LIG    1       -0.500  -2.297   4.815  0.00  0.00    +0.046 A 
BRANCH  33  37
ATOM     37  C   LIG    1       -4.537  -3.658   6.071  0.00  0.00    +0.033 A 
ATOM     38  C   LIG    1       -5.032  -4.773   6.799  0.00  0.00    +0.119 A 
ATOM     39  N   LIG    1       -5.624  -5.648   6.001  0.00  0.00    -0.169 NA
ATOM     40  N   LIG    1       -5.535  -5.123   4.779  0.00  0.00    -0.267 N 
ATOM     41  C   LIG    1       -5.928  -5.608   3.472  0.00  0.00    +0.144 C 
ATOM     42  C   LIG    1       -5.812  -4.331   2.628  0.00  0.00    +0.029 C 
ATOM     43  C   LIG    1       -4.819  -3.411   3.347  0.00  0.00    +0.057 C 
ATOM     44  C   LIG    1       -4.879  -3.932   4.758  0.00  0.00    +0.048 A 
BRANCH  38  45
ATOM     45  C   LIG    1       -4.921  -5.038   8.272  0.00  0.00    +0.091 A 
ATOM     46  N   LIG    1       -5.949  -5.729   8.843  0.00  0.00    -0.253 NA
ATOM     47  C   LIG    1       -5.889  -5.994  10.172  0.00  0.00    +0.111 A 
ATOM     48  C   LIG    1       -4.823  -5.593  10.977  0.00  0.00    +0.020 A 
ATOM     49  C   LIG    1       -3.771  -4.893  10.386  0.00  0.00    +0.004 A 
ATOM     50  C   LIG    1       -3.814  -4.613   9.018  0.00  0.00    +0.030 A 
ENDBRANCH  38  45
ENDBRANCH  33  37
ENDBRANCH  26  27
ENDBRANCH   1  26
TORSDOF 18
