REMARK  Name = DB18065
REMARK                            x       y       z     vdW  Elec       q    Type
REMARK                         _______ _______ _______ _____ _____    ______ ____
ROOT
ATOM      1  C   LIG    1       -2.468   2.985   0.482  0.00  0.00    +0.039 C 
ATOM      2  C   LIG    1       -2.044   1.547   0.162  0.00  0.00    +0.129 C 
ATOM      3  O   LIG    1       -2.621   0.593   1.049  0.00  0.00    -0.374 OA
ATOM      4  C   LIG    1       -2.045  -0.700   0.995  0.00  0.00    +0.179 C 
ATOM      5  C   LIG    1       -0.519  -0.648   1.231  0.00  0.00    +0.087 C 
ATOM      6  N   LIG    1        0.082   0.064   0.089  0.00  0.00    -0.291 NA
ATOM      7  C   LIG    1       -0.546   1.363  -0.225  0.00  0.00    +0.116 C 
ENDROOT
BRANCH   6   8
ATOM      8  C   LIG    1        1.561   0.088   0.038  0.00  0.00    +0.060 C 
ATOM      9  C   LIG    1        2.257  -1.274   0.268  0.00  0.00    +0.038 C 
ATOM     10  C   LIG    1        3.797  -1.183   0.268  0.00  0.00    +0.109 C 
ATOM     11  N   LIG    1        4.360  -0.547  -0.934  0.00  0.00    -0.300 N 
ATOM     12  C   LIG    1        3.701   0.729  -1.254  0.00  0.00    +0.109 C 
ATOM     13  C   LIG    1        2.161   0.654  -1.271  0.00  0.00    +0.038 C 
BRANCH  11  14
ATOM     14  C   LIG    1        5.607  -0.852  -1.417  0.00  0.00    +0.215 A 
ATOM     15  N   LIG    1        6.350  -1.920  -0.990  0.00  0.00    -0.245 N 
ATOM     16  H   LIG    1        6.084  -2.592  -0.285  0.00  0.00    +0.192 HD
ATOM     17  N   LIG    1        7.511  -1.961  -1.643  0.00  0.00    -0.135 NA
ATOM     18  C   LIG    1        7.405  -0.914  -2.434  0.00  0.00    +0.233 A 
ATOM     19  N   LIG    1        6.284  -0.212  -2.343  0.00  0.00    -0.180 NA
BRANCH  18  20
ATOM     20  N   LIG    1        8.398  -0.568  -3.303  0.00  0.00    -0.326 N 
ATOM     21  H   LIG    1        8.314   0.237  -3.907  0.00  0.00    +0.145 HD
ATOM     22  H   LIG    1        9.250  -1.105  -3.373  0.00  0.00    +0.145 HD
ENDBRANCH  18  20
ENDBRANCH  11  14
ENDBRANCH   6   8
BRANCH   5  23
ATOM     23  C   LIG    1       -0.145  -0.094   2.633  0.00  0.00    +0.056 C 
BRANCH  23  24
ATOM     24  C   LIG    1       -0.665  -0.940   3.788  0.00  0.00    -0.046 A 
ATOM     25  C   LIG    1        0.000  -2.116   4.141  0.00  0.00    +0.005 A 
ATOM     26  C   LIG    1       -0.477  -2.895   5.193  0.00  0.00    +0.020 A 
ATOM     27  C   LIG    1       -1.617  -2.493   5.889  0.00  0.00    +0.041 A 
ATOM     28 CL   LIG    1       -2.208  -3.458   7.192  0.00  0.00    -0.084 Cl
ATOM     29  C   LIG    1       -2.282  -1.319   5.541  0.00  0.00    +0.020 A 
ATOM     30  C   LIG    1       -1.806  -0.541   4.489  0.00  0.00    +0.005 A 
ENDBRANCH  23  24
ENDBRANCH   5  23
TORSDOF 5
