REMARK  Name = DB18156
REMARK                            x       y       z     vdW  Elec       q    Type
REMARK                         _______ _______ _______ _____ _____    ______ ____
ROOT
ATOM      1  O   LIG    1       -0.093   2.194   0.237  0.00  0.00    -0.267 OA
ATOM      2  C   LIG    1       -0.670   1.105   0.141  0.00  0.00    +0.262 A 
ATOM      3  C   LIG    1       -2.179   0.994   0.065  0.00  0.00    +0.050 A 
ATOM      4  C   LIG    1       -2.838  -0.246  -0.068  0.00  0.00    +0.009 A 
ATOM      5  C   LIG    1       -4.250  -0.286  -0.144  0.00  0.00    +0.010 A 
ATOM      6  C   LIG    1       -5.035   0.903  -0.080  0.00  0.00    +0.069 A 
ATOM      7  C   LIG    1       -6.567   0.819  -0.136  0.00  0.00    +0.264 A 
ATOM      8  N   LIG    1       -7.083  -0.443  -0.343  0.00  0.00    -0.275 N 
ATOM      9  C   LIG    1       -6.411  -1.642  -0.397  0.00  0.00    +0.262 A 
ATOM     10  O   LIG    1       -6.979  -2.732  -0.525  0.00  0.00    -0.267 OA
ATOM     11  O   LIG    1       -7.302   1.804  -0.012  0.00  0.00    -0.267 OA
ATOM     12  C   LIG    1       -4.352   2.147   0.034  0.00  0.00    +0.041 A 
ATOM     13  C   LIG    1       -4.906  -1.527  -0.290  0.00  0.00    +0.049 A 
ATOM     14  C   LIG    1       -4.132  -2.689  -0.359  0.00  0.00    +0.023 A 
ATOM     15  C   LIG    1       -2.734  -2.672  -0.293  0.00  0.00    -0.004 A 
ATOM     16  C   LIG    1       -2.053  -1.436  -0.125  0.00  0.00    +0.056 A 
ATOM     17  C   LIG    1       -0.531  -1.369   0.020  0.00  0.00    +0.262 A 
ATOM     18  O   LIG    1        0.189  -2.370   0.087  0.00  0.00    -0.267 OA
ATOM     19  C   LIG    1       -2.949   2.160   0.113  0.00  0.00    +0.037 A 
ATOM     20  N   LIG    1       -0.003  -0.098   0.098  0.00  0.00    -0.275 N 
ENDROOT
BRANCH  15  21
ATOM     21  C   LIG    1       -2.064  -3.995  -0.428  0.00  0.00    -0.017 A 
ATOM     22  C   LIG    1       -1.406  -4.334  -1.615  0.00  0.00    +0.009 A 
ATOM     23  C   LIG    1       -0.785  -5.573  -1.746  0.00  0.00    +0.002 A 
ATOM     24  C   LIG    1       -0.832  -6.490  -0.693  0.00  0.00    -0.064 A 
ATOM     25  C   LIG    1       -1.487  -6.157   0.494  0.00  0.00    +0.002 A 
ATOM     26  C   LIG    1       -2.107  -4.917   0.622  0.00  0.00    +0.009 A 
BRANCH  24  27
ATOM     27  C   LIG    1       -0.136  -7.836  -0.830  0.00  0.00    -0.043 C 
BRANCH  27  28
ATOM     28  N   LIG    1       -0.938  -8.882  -1.636  0.00  0.00    +0.382 N 
ATOM     29  H   LIG    1       -1.173  -8.448  -2.518  0.00  0.00    -0.081 HD
ATOM     30  C   LIG    1       -2.228  -9.369  -0.950  0.00  0.00    -0.078 C 
ATOM     31  C   LIG    1       -1.794 -10.560  -0.092  0.00  0.00    -0.020 C 
ATOM     32  C   LIG    1       -0.510 -11.108  -0.722  0.00  0.00    -0.020 C 
ATOM     33  C   LIG    1       -0.163 -10.186  -1.897  0.00  0.00    -0.078 C 
ENDBRANCH  27  28
ENDBRANCH  24  27
ENDBRANCH  15  21
BRANCH  12  34
ATOM     34  N   LIG    1       -5.059   3.372   0.072  0.00  0.00    -0.345 N 
ATOM     35  H   LIG    1       -6.053   3.310   0.249  0.00  0.00    +0.146 HD
BRANCH  34  36
ATOM     36  C   LIG    1       -4.455   4.696   0.181  0.00  0.00    +0.083 C 
BRANCH  36  37
ATOM     37  C   LIG    1       -4.246   5.151   1.641  0.00  0.00    -0.060 C 
BRANCH  37  38
ATOM     38  N   LIG    1       -4.826   6.564   1.869  0.00  0.00    +0.381 N 
ATOM     39  H   LIG    1       -4.438   7.183   1.171  0.00  0.00    -0.082 HD
ATOM     40  C   LIG    1       -4.469   7.147   3.245  0.00  0.00    -0.079 C 
ATOM     41  C   LIG    1       -5.477   8.277   3.411  0.00  0.00    -0.020 C 
ATOM     42  C   LIG    1       -6.768   7.748   2.793  0.00  0.00    -0.020 C 
ATOM     43  C   LIG    1       -6.368   6.641   1.807  0.00  0.00    -0.079 C 
ENDBRANCH  37  38
ENDBRANCH  36  37
ENDBRANCH  34  36
ENDBRANCH  12  34
BRANCH   8  44
ATOM     44  C   LIG    1       -8.568  -0.547  -0.497  0.00  0.00    +0.127 C 
BRANCH  44  45
ATOM     45  C   LIG    1       -9.065  -0.783  -1.948  0.00  0.00    +0.003 C 
BRANCH  45  46
ATOM     46  C   LIG    1       -8.578   0.235  -3.000  0.00  0.00    -0.077 C 
BRANCH  46  47
ATOM     47  N   LIG    1       -8.938   1.687  -2.604  0.00  0.00    +0.383 N 
ATOM     48  H   LIG    1       -8.651   1.835  -1.647  0.00  0.00    -0.082 HD
ATOM     49  C   LIG    1      -10.457   1.964  -2.681  0.00  0.00    -0.050 C 
ATOM     50  C   LIG    1      -10.711   3.442  -2.321  0.00  0.00    +0.141 C 
ATOM     51  O   LIG    1       -9.943   4.306  -3.155  0.00  0.00    -0.383 OA
ATOM     52  C   LIG    1       -8.534   4.123  -3.048  0.00  0.00    +0.141 C 
ATOM     53  C   LIG    1       -8.140   2.693  -3.463  0.00  0.00    -0.050 C 
ENDBRANCH  46  47
ENDBRANCH  45  46
ENDBRANCH  44  45
ENDBRANCH   8  44
BRANCH  20  54
ATOM     54  C   LIG    1        1.488   0.006   0.131  0.00  0.00    +0.127 C 
BRANCH  54  55
ATOM     55  C   LIG    1        2.104   0.184   1.539  0.00  0.00    +0.003 C 
BRANCH  55  56
ATOM     56  C   LIG    1        1.883  -1.015   2.482  0.00  0.00    -0.077 C 
BRANCH  56  57
ATOM     57  N   LIG    1        2.427  -0.730   3.902  0.00  0.00    +0.383 N 
ATOM     58  H   LIG    1        2.049   0.150   4.224  0.00  0.00    -0.082 HD
ATOM     59  C   LIG    1        3.970  -0.620   3.935  0.00  0.00    -0.050 C 
ATOM     60  C   LIG    1        4.430  -0.419   5.393  0.00  0.00    +0.141 C 
ATOM     61  O   LIG    1        3.934  -1.461   6.229  0.00  0.00    -0.383 OA
ATOM     62  C   LIG    1        2.513  -1.538   6.282  0.00  0.00    +0.141 C 
ATOM     63  C   LIG    1        1.933  -1.819   4.882  0.00  0.00    -0.050 C 
ENDBRANCH  56  57
ENDBRANCH  55  56
ENDBRANCH  54  55
ENDBRANCH  20  54
TORSDOF 15
