REMARK  Name = DB18102
REMARK                            x       y       z     vdW  Elec       q    Type
REMARK                         _______ _______ _______ _____ _____    ______ ____
ROOT
ATOM      1  C   LIG    1       -3.522   1.387  -0.717  0.00  0.00    +0.152 C 
ATOM      2  N   LIG    1       -2.341   0.590  -0.383  0.00  0.00    -0.316 N 
ATOM      3  C   LIG    1       -2.345  -0.782  -0.216  0.00  0.00    +0.143 A 
ATOM      4  N   LIG    1       -3.393  -1.603  -0.379  0.00  0.00    -0.237 NA
ATOM      5  C   LIG    1       -3.141  -2.917  -0.145  0.00  0.00    +0.113 A 
ATOM      6  C   LIG    1       -1.902  -3.426   0.239  0.00  0.00    +0.020 A 
ATOM      7  C   LIG    1       -0.826  -2.553   0.401  0.00  0.00    +0.014 A 
ATOM      8  C   LIG    1       -1.035  -1.180   0.169  0.00  0.00    +0.033 A 
ATOM      9  C   LIG    1       -0.212  -0.001   0.219  0.00  0.00    +0.088 A 
ATOM     10  C   LIG    1       -1.082   1.071  -0.048  0.00  0.00    +0.117 A 
ENDROOT
BRANCH   9  11
ATOM     11  C   LIG    1        1.170   0.105   0.625  0.00  0.00    +0.271 C 
ATOM     12  N   LIG    1        1.869   1.071  -0.005  0.00  0.00    -0.190 N 
ATOM     13  H   LIG    1        1.557   1.593  -0.811  0.00  0.00    +0.183 HD
ATOM     14  O   LIG    1        1.638  -0.658   1.472  0.00  0.00    -0.268 OA
BRANCH  12  15
ATOM     15  O   LIG    1        3.238   1.207   0.231  0.00  0.00    -0.277 OA
BRANCH  15  16
ATOM     16  C   LIG    1        3.473   2.172   1.255  0.00  0.00    +0.218 C 
BRANCH  16  17
ATOM     17  C   LIG    1        4.983   2.341   1.494  0.00  0.00    +0.186 C 
BRANCH  17  18
ATOM     18  O   LIG    1        5.606   2.957   0.385  0.00  0.00    -0.393 OA
ATOM     19  H   LIG    1        5.555   2.357  -0.363  0.00  0.00    +0.209 HD
ENDBRANCH  17  18
ENDBRANCH  16  17
ENDBRANCH  15  16
ENDBRANCH  12  15
ENDBRANCH   9  11
BRANCH  10  20
ATOM     20  N   LIG    1       -0.838   2.428  -0.041  0.00  0.00    -0.298 N 
ATOM     21  H   LIG    1       -0.267   2.837  -0.766  0.00  0.00    +0.154 HD
BRANCH  20  22
ATOM     22  C   LIG    1       -1.163   3.336   0.984  0.00  0.00    +0.068 A 
ATOM     23  C   LIG    1       -1.809   2.979   2.185  0.00  0.00    +0.145 A 
ATOM     24  F   LIG    1       -2.170   1.701   2.447  0.00  0.00    -0.204 F 
ATOM     25  C   LIG    1       -2.088   3.953   3.145  0.00  0.00    +0.054 A 
ATOM     26  C   LIG    1       -1.728   5.282   2.926  0.00  0.00    +0.016 A 
ATOM     27  I   LIG    1       -2.152   6.733   4.370  0.00  0.00    -0.044 I 
ATOM     28  C   LIG    1       -1.084   5.641   1.744  0.00  0.00    +0.016 A 
ATOM     29  C   LIG    1       -0.804   4.672   0.781  0.00  0.00    +0.027 A 
ENDBRANCH  20  22
ENDBRANCH  10  20
TORSDOF 7
