REMARK  Name = DB18299
REMARK                            x       y       z     vdW  Elec       q    Type
REMARK                         _______ _______ _______ _____ _____    ______ ____
ROOT
ATOM      1  C   LIG    1        8.746  -0.702  -0.101  0.00  0.00    +0.221 A 
ATOM      2  N   LIG    1        8.281  -0.173   1.065  0.00  0.00    -0.211 NA
ATOM      3  C   LIG    1        9.185   0.087   2.053  0.00  0.00    +0.111 A 
ATOM      4  C   LIG    1       10.553  -0.169   1.862  0.00  0.00    +0.167 A 
ATOM      5  F   LIG    1       11.479   0.107   2.810  0.00  0.00    -0.202 F 
ATOM      6  C   LIG    1       10.940  -0.710   0.635  0.00  0.00    +0.155 A 
ATOM      7  N   LIG    1       10.050  -0.983  -0.354  0.00  0.00    -0.220 NA
ENDROOT
BRANCH   3   8
ATOM      8  C   LIG    1        8.629   0.657   3.316  0.00  0.00    +0.008 A 
ATOM      9  C   LIG    1        7.654   1.667   3.263  0.00  0.00    +0.038 A 
ATOM     10  C   LIG    1        7.166   2.167   4.477  0.00  0.00    +0.073 A 
ATOM     11  N   LIG    1        6.230   3.131   4.805  0.00  0.00    -0.325 N 
ATOM     12  C   LIG    1        6.211   3.202   6.187  0.00  0.00    +0.108 A 
ATOM     13  C   LIG    1        5.350   4.176   6.965  0.00  0.00    +0.086 C 
ATOM     14  N   LIG    1        7.015   2.344   6.761  0.00  0.00    -0.230 NA
ATOM     15  C   LIG    1        7.627   1.689   5.726  0.00  0.00    +0.124 A 
ATOM     16  C   LIG    1        8.595   0.677   5.765  0.00  0.00    +0.151 A 
ATOM     17  F   LIG    1        9.057   0.191   6.940  0.00  0.00    -0.203 F 
ATOM     18  C   LIG    1        9.078   0.179   4.556  0.00  0.00    +0.050 A 
BRANCH  11  19
ATOM     19  C   LIG    1        5.484   3.973   3.876  0.00  0.00    +0.089 C 
ATOM     20  C   LIG    1        4.695   3.306   2.767  0.00  0.00    +0.027 C 
ATOM     21  C   LIG    1        3.967   3.945   3.917  0.00  0.00    +0.027 C 
ENDBRANCH  11  19
ENDBRANCH   3   8
BRANCH   1  22
ATOM     22  N   LIG    1        7.860  -1.000  -1.150  0.00  0.00    -0.268 N 
ATOM     23  H   LIG    1        8.318  -1.397  -1.958  0.00  0.00    +0.156 HD
BRANCH  22  29
ATOM     24  N   LIG    1        1.579   0.348  -0.807  0.00  0.00    -0.299 NA
ATOM     25  C   LIG    1        2.198  -0.609  -1.733  0.00  0.00    +0.121 C 
ATOM     26  C   LIG    1        3.723  -0.644  -1.642  0.00  0.00    -0.012 A 
ATOM     27  C   LIG    1        4.512  -1.194  -2.656  0.00  0.00    +0.010 A 
ATOM     28  C   LIG    1        5.893  -1.302  -2.495  0.00  0.00    +0.044 A 
ATOM     29  C   LIG    1        6.468  -0.866  -1.301  0.00  0.00    +0.125 A 
ATOM     30  N   LIG    1        5.715  -0.325  -0.307  0.00  0.00    -0.236 NA
ATOM     31  C   LIG    1        4.375  -0.186  -0.481  0.00  0.00    +0.049 A 
ATOM     32  C   LIG    1        3.561   0.440   0.646  0.00  0.00    +0.071 C 
ATOM     33  C   LIG    1        2.059   0.090   0.557  0.00  0.00    +0.091 C 
BRANCH  24  34
ATOM     34  C   LIG    1        0.119   0.304  -0.922  0.00  0.00    +0.066 C 
BRANCH  34  35
ATOM     35  C   LIG    1       -0.551   1.492  -0.195  0.00  0.00    -0.064 C 
BRANCH  35  37
ATOM     36  C   LIG    1       -2.903   0.433  -0.194  0.00  0.00    -0.097 C 
ATOM     37  N   LIG    1       -2.033   1.635  -0.614  0.00  0.00    +0.377 N 
ATOM     38  H   LIG    1       -2.051   1.684  -1.623  0.00  0.00    -0.083 HD
ATOM     39  C   LIG    1       -2.637   2.954  -0.093  0.00  0.00    -0.097 C 
ENDBRANCH  35  37
ENDBRANCH  34  35
ENDBRANCH  24  34
ENDBRANCH  22  29
ENDBRANCH   1  22
TORSDOF 7
