REMARK  Name = DB18051
REMARK                            x       y       z     vdW  Elec       q    Type
REMARK                         _______ _______ _______ _____ _____    ______ ____
ROOT
ATOM      1  C   LIG    1        1.540  -0.055   0.202  0.00  0.00    +0.018 A 
ATOM      2  C   LIG    1        2.250  -0.836   1.121  0.00  0.00    +0.124 A 
ATOM      3  N   LIG    1        3.614  -0.714   1.167  0.00  0.00    -0.221 N 
ATOM      4  N   LIG    1        4.439  -1.384   1.995  0.00  0.00    -0.173 NA
ATOM      5  C   LIG    1        5.641  -0.939   1.697  0.00  0.00    +0.145 A 
ATOM      6  C   LIG    1        5.681   0.013   0.668  0.00  0.00    +0.047 A 
ATOM      7  C   LIG    1        4.308   0.168   0.325  0.00  0.00    +0.163 A 
ATOM      8  N   LIG    1        3.651   0.922  -0.568  0.00  0.00    -0.235 NA
ATOM      9  C   LIG    1        2.296   0.799  -0.615  0.00  0.00    +0.123 A 
ENDROOT
BRANCH   6  10
ATOM     10  C   LIG    1        6.867   0.741   0.112  0.00  0.00    -0.002 A 
ATOM     11  C   LIG    1        8.143   0.137  -0.149  0.00  0.00    +0.008 A 
ATOM     12  C   LIG    1        8.425  -1.247   0.037  0.00  0.00    +0.010 A 
ATOM     13  C   LIG    1        9.693  -1.757  -0.230  0.00  0.00    +0.001 A 
ATOM     14  C   LIG    1       10.708  -0.929  -0.690  0.00  0.00    +0.002 A 
ATOM     15  C   LIG    1       10.472   0.425  -0.904  0.00  0.00    +0.028 A 
ATOM     16  C   LIG    1        9.192   0.976  -0.647  0.00  0.00    +0.072 A 
ATOM     17  N   LIG    1        9.008   2.301  -0.894  0.00  0.00    -0.255 NA
ATOM     18  C   LIG    1        7.785   2.831  -0.667  0.00  0.00    +0.112 A 
ATOM     19  C   LIG    1        6.710   2.100  -0.178  0.00  0.00    +0.029 A 
ENDBRANCH   6  10
BRANCH   1  23
ATOM     20  C   LIG    1       -2.747  -0.253  -0.077  0.00  0.00    +0.030 A 
ATOM     21  C   LIG    1       -2.087   0.967  -0.226  0.00  0.00    +0.024 A 
ATOM     22  C   LIG    1       -0.700   1.029  -0.136  0.00  0.00    +0.010 A 
ATOM     23  C   LIG    1        0.055  -0.126   0.102  0.00  0.00    -0.015 A 
ATOM     24  C   LIG    1       -0.615  -1.348   0.248  0.00  0.00    +0.010 A 
ATOM     25  C   LIG    1       -2.003  -1.413   0.161  0.00  0.00    +0.024 A 
BRANCH  20  32
ATOM     26  C   LIG    1       -6.229  -0.677  -1.524  0.00  0.00    -0.063 C 
ATOM     27  N   LIG    1       -6.993  -1.066  -0.251  0.00  0.00    +0.381 N 
ATOM     28  H   LIG    1       -6.910  -2.060  -0.092  0.00  0.00    -0.086 HD
ATOM     29  H   LIG    1       -7.974  -0.849  -0.354  0.00  0.00    -0.086 HD
ATOM     30  C   LIG    1       -6.404  -0.297   0.939  0.00  0.00    -0.063 C 
ATOM     31  C   LIG    1       -4.891  -0.594   1.053  0.00  0.00    +0.086 C 
ATOM     32  N   LIG    1       -4.127  -0.288  -0.169  0.00  0.00    -0.333 N 
ATOM     33  C   LIG    1       -4.723  -0.965  -1.333  0.00  0.00    +0.086 C 
ENDBRANCH  20  32
ENDBRANCH   1  23
TORSDOF 3
