REMARK  Name = DB18509
REMARK                            x       y       z     vdW  Elec       q    Type
REMARK                         _______ _______ _______ _____ _____    ______ ____
ROOT
ATOM      1 AS   LIG    1        0.113  -0.007  -0.115  0.00  0.00    +0.000 As
ENDROOT
BRANCH   1   2
ATOM      2  O   LIG    1        0.267   1.607  -0.622  0.00  0.00    +0.000 OA
ATOM      3  H   LIG    1       -0.545   1.883  -1.075  0.00  0.00    +0.000 HD
ENDBRANCH   1   2
BRANCH   1   4
ATOM      4  O   LIG    1        1.469  -0.628   0.699  0.00  0.00    +0.000 OA
ATOM      5  H   LIG    1        1.790   0.027   1.338  0.00  0.00    +0.000 HD
ENDBRANCH   1   4
BRANCH   1   6
ATOM      6  O   LIG    1       -0.561  -1.053  -1.272  0.00  0.00    +0.000 OA
ATOM      7  H   LIG    1       -1.326  -0.626  -1.688  0.00  0.00    +0.000 HD
ENDBRANCH   1   6
TORSDOF 3
