REMARK  Name = DB18023
REMARK                            x       y       z     vdW  Elec       q    Type
REMARK                         _______ _______ _______ _____ _____    ______ ____
ROOT
ATOM      1  C   UNK A  0       -2.510   0.627  -0.291  0.00  0.00    -0.009 A 
ATOM      2  S   UNK A  0       -1.007   1.390   0.166  0.00  0.00    -0.089 S 
ATOM      3  C   UNK A  0       -0.067  -0.014  -0.235  0.00  0.00    +0.074 A 
ATOM      4  C   UNK A  0       -0.894  -1.028  -0.713  0.00  0.00    +0.021 A 
ATOM      5  C   UNK A  0       -2.245  -0.666  -0.740  0.00  0.00    +0.012 A 
ENDROOT
BRANCH   3   6
ATOM      6  C   UNK A  0        1.367   0.003  -0.059  0.00  0.00    +0.251 C 
ATOM      7  N   GLU A  1        1.977  -1.162  -0.357  0.00  0.00    -0.298 N 
ATOM      8  H   GLU A  1        1.394  -1.953  -0.586  0.00  0.00    +0.150 HD
ATOM      9  O   UNK A  0        1.959   1.011   0.337  0.00  0.00    -0.270 OA
BRANCH   7  10
ATOM     10  CA  GLU A  1        3.418  -1.472  -0.290  0.00  0.00    +0.182 C 
BRANCH  10  11
ATOM     11  C   GLU A  1        4.256  -0.578  -1.286  0.00  0.00    +0.325 C 
ATOM     12  OXT GLU A  1        5.051   0.212  -0.728  0.00  0.00    -0.249 OA
BRANCH  11  13
ATOM     13  O   GLU A  1        4.029  -0.743  -2.509  0.00  0.00    -0.479 OA
ATOM     14  H   GLU A  1        4.498  -0.239  -3.145  0.00  0.00    +0.295 HD
ENDBRANCH  11  13
ENDBRANCH  10  11
BRANCH  10  15
ATOM     15  CB  GLU A  1        3.592  -2.987  -0.604  0.00  0.00    +0.045 C 
BRANCH  15  16
ATOM     16  CG  GLU A  1        5.035  -3.525  -0.431  0.00  0.00    +0.123 C 
BRANCH  16  17
ATOM     17  CD  GLU A  1        5.213  -5.042  -0.636  0.00  0.00    +0.305 C 
ATOM     18  OE2 GLU A  1        4.223  -5.740  -0.954  0.00  0.00    -0.251 OA
BRANCH  17  19
ATOM     19  OE1 GLU A  1        6.369  -5.490  -0.466  0.00  0.00    -0.481 OA
ATOM     20  HE1 GLU A  1        6.537  -6.405  -0.577  0.00  0.00    +0.295 HD
ENDBRANCH  17  19
ENDBRANCH  16  17
ENDBRANCH  15  16
ENDBRANCH  10  15
ENDBRANCH   7  10
ENDBRANCH   3   6
BRANCH   1  21
ATOM     21  C   UNK A  0       -3.838   1.347  -0.177  0.00  0.00    +0.043 C 
BRANCH  21  22
ATOM     22  C   UNK A  0       -4.242   1.627   1.283  0.00  0.00    +0.011 C 
BRANCH  22  23
ATOM     23  C   UNK A  0       -5.583   2.373   1.402  0.00  0.00    +0.053 C 
BRANCH  23  31
ATOM     24  C   UNK A  0       -7.387   2.170   7.053  0.00  0.00    +0.195 A 
ATOM     25  N   UNK A  0       -7.001   3.500   7.130  0.00  0.00    -0.295 N 
ATOM     26  H   UNK A  0       -7.125   3.965   8.018  0.00  0.00    +0.172 HD
ATOM     27  C   UNK A  0       -6.459   4.290   6.142  0.00  0.00    +0.262 A 
ATOM     28  O   UNK A  0       -6.159   5.465   6.341  0.00  0.00    -0.267 OA
ATOM     29  C   UNK A  0       -6.321   3.518   4.908  0.00  0.00    +0.083 A 
ATOM     30  C   UNK A  0       -5.843   3.804   3.623  0.00  0.00    +0.038 A 
ATOM     31  C   UNK A  0       -5.955   2.652   2.842  0.00  0.00    +0.018 A 
ATOM     32  N   UNK A  0       -6.493   1.674   3.649  0.00  0.00    -0.343 N 
ATOM     33  H   UNK A  0       -6.690   0.726   3.365  0.00  0.00    +0.167 HD
ATOM     34  C   UNK A  0       -6.722   2.186   4.898  0.00  0.00    +0.147 A 
ATOM     35  N   UNK A  0       -7.252   1.503   5.953  0.00  0.00    -0.198 NA
BRANCH  24  36
ATOM     36  N   UNK A  0       -7.923   1.563   8.210  0.00  0.00    -0.329 N 
ATOM     37  H   UNK A  0       -8.349   2.143   8.918  0.00  0.00    +0.145 HD
ATOM     38  H   UNK A  0       -8.367   0.660   8.128  0.00  0.00    +0.145 HD
ENDBRANCH  24  36
ENDBRANCH  23  31
ENDBRANCH  22  23
ENDBRANCH  21  22
ENDBRANCH   1  21
TORSDOF 13
