REMARK  Name = DB18154
REMARK                            x       y       z     vdW  Elec       q    Type
REMARK                         _______ _______ _______ _____ _____    ______ ____
ROOT
ATOM      1  C   LIG    1        2.035  -3.802   1.241  0.00  0.00    +0.006 C 
ATOM      2  C   LIG    1        3.425  -3.980   1.744  0.00  0.00    +0.186 C 
ATOM      3  O   LIG    1        4.127  -3.045   2.140  0.00  0.00    -0.287 OA
ATOM      4  C   LIG    1        3.896  -5.389   1.696  0.00  0.00    +0.003 C 
ATOM      5  C   LIG    1        5.305  -5.575   2.274  0.00  0.00    +0.048 C 
ATOM      6  C   LIG    1        3.126  -6.421   1.244  0.00  0.00    +0.003 C 
ATOM      7  C   LIG    1        3.628  -7.867   1.135  0.00  0.00    +0.048 C 
ATOM      8  C   LIG    1        1.739  -6.244   0.740  0.00  0.00    +0.185 C 
ATOM      9  O   LIG    1        1.038  -7.180   0.343  0.00  0.00    -0.287 OA
ATOM     10  C   LIG    1        1.267  -4.835   0.789  0.00  0.00    +0.003 C 
ATOM     11  C   LIG    1       -0.145  -4.655   0.215  0.00  0.00    +0.048 C 
ENDROOT
BRANCH   1  12
ATOM     12  C   LIG    1        1.525  -2.353   1.330  0.00  0.00    +0.039 C 
BRANCH  12  13
ATOM     13  C   LIG    1        1.885  -1.495   0.098  0.00  0.00    +0.005 C 
BRANCH  13  14
ATOM     14  C   LIG    1        1.378  -0.041   0.166  0.00  0.00    +0.000 C 
BRANCH  14  15
ATOM     15  C   LIG    1       -0.155   0.100   0.092  0.00  0.00    +0.000 C 
BRANCH  15  16
ATOM     16  C   LIG    1       -0.621   1.566   0.058  0.00  0.00    +0.000 C 
BRANCH  16  17
ATOM     17  C   LIG    1       -2.151   1.706  -0.035  0.00  0.00    -0.000 C 
BRANCH  17  18
ATOM     18  C   LIG    1       -2.618   3.172  -0.082  0.00  0.00    -0.000 C 
BRANCH  18  20
ATOM     19  C   LIG    1       -4.614   4.773  -0.223  0.00  0.00    +0.004 C 
ATOM     20  C   LIG    1       -4.147   3.312  -0.178  0.00  0.00    -0.003 C 
ENDBRANCH  18  20
ENDBRANCH  17  18
ENDBRANCH  16  17
ENDBRANCH  15  16
ENDBRANCH  14  15
ENDBRANCH  13  14
ENDBRANCH  12  13
ENDBRANCH   1  12
TORSDOF 8
