REMARK  Name = DB18178
REMARK                            x       y       z     vdW  Elec       q    Type
REMARK                         _______ _______ _______ _____ _____    ______ ____
ROOT
ATOM      1  C   LIG    1        1.678  -0.002   0.040  0.00  0.00    +0.116 C 
ENDROOT
BRANCH   1   2
ATOM      2  C   LIG    1        1.988  -1.514   0.168  0.00  0.00    -0.011 A 
ATOM      3  C   LIG    1        3.260  -1.911   0.612  0.00  0.00    +0.019 A 
ATOM      4  C   LIG    1        3.602  -3.261   0.748  0.00  0.00    +0.055 A 
ATOM      5  C   LIG    1        2.651  -4.236   0.429  0.00  0.00    +0.012 A 
ATOM      6  C   LIG    1        1.385  -3.864  -0.018  0.00  0.00    +0.001 A 
ATOM      7  C   LIG    1        1.056  -2.516  -0.150  0.00  0.00    +0.007 A 
BRANCH   4   8
ATOM      8  C   LIG    1        4.995  -3.653   1.237  0.00  0.00    +0.417 C 
ATOM      9  F   LIG    1        5.312  -4.902   0.890  0.00  0.00    -0.166 F 
ATOM     10  F   LIG    1        5.027  -3.567   2.567  0.00  0.00    -0.166 F 
ATOM     11  F   LIG    1        5.923  -2.838   0.735  0.00  0.00    -0.166 F 
ENDBRANCH   4   8
ENDBRANCH   1   2
BRANCH   1  12
ATOM     12  C   LIG    1        1.914   0.703   1.400  0.00  0.00    -0.012 A 
ATOM     13  C   LIG    1        1.241   0.235   2.539  0.00  0.00    +0.007 A 
ATOM     14  C   LIG    1        1.421   0.852   3.773  0.00  0.00    +0.000 A 
ATOM     15  C   LIG    1        2.274   1.947   3.878  0.00  0.00    +0.000 A 
ATOM     16  C   LIG    1        2.946   2.430   2.759  0.00  0.00    +0.000 A 
ATOM     17  C   LIG    1        2.765   1.813   1.524  0.00  0.00    +0.007 A 
ENDBRANCH   1  12
BRANCH   1  19
ATOM     18  C   LIG    1       -0.166   1.778  -0.587  0.00  0.00    +0.007 C 
ATOM     19  C   LIG    1        0.217   0.290  -0.441  0.00  0.00    +0.041 C 
ENDBRANCH   1  19
BRANCH   1  20
ATOM     20  O   LIG    1        2.500   0.528  -0.992  0.00  0.00    -0.379 OA
ATOM     21  H   LIG    1        3.418   0.403  -0.741  0.00  0.00    +0.211 HD
ENDBRANCH   1  20
TORSDOF 5
