REMARK  Name = DB18107
REMARK                            x       y       z     vdW  Elec       q    Type
REMARK                         _______ _______ _______ _____ _____    ______ ____
ROOT
ATOM      1  C   LIG    1       -0.015  -0.131  -0.007  0.00  0.00    +0.047 C 
ATOM      2  C   LIG    1        1.505  -0.051  -0.002  0.00  0.00    -0.008 A 
ATOM      3  C   LIG    1        2.194   1.176   0.002  0.00  0.00    +0.095 A 
ATOM      4  C   LIG    1        3.597   1.169   0.003  0.00  0.00    +0.075 A 
ATOM      5  N   LIG    1        3.997   2.481   0.026  0.00  0.00    -0.311 N 
ATOM      6  C   LIG    1        2.831   3.217   0.006  0.00  0.00    +0.199 A 
ATOM      7  C   LIG    1        5.422   2.840  -0.014  0.00  0.00    +0.125 C 
ATOM      8  C   LIG    1        6.248   1.663   0.591  0.00  0.00    +0.026 C 
ATOM      9  C   LIG    1        5.897   0.267  -0.004  0.00  0.00    +0.040 C 
ATOM     10  C   LIG    1        4.387   0.027   0.010  0.00  0.00    -0.007 A 
ATOM     11  C   LIG    1        3.690  -1.189   0.000  0.00  0.00    +0.037 A 
ATOM     12 BR   LIG    1        4.701  -2.810  -0.016  0.00  0.00    -0.049 Br
ATOM     13  N   LIG    1        1.742   2.476   0.002  0.00  0.00    -0.214 NA
ATOM     14  C   LIG    1        2.281  -1.231  -0.004  0.00  0.00    +0.037 A 
ATOM     15 BR   LIG    1        1.400  -2.930  -0.017  0.00  0.00    -0.049 Br
ENDROOT
BRANCH   6  16
ATOM     16  N   LIG    1        2.851   4.576  -0.013  0.00  0.00    -0.305 N 
ATOM     17  C   LIG    1        2.540   5.367   1.183  0.00  0.00    +0.089 C 
ATOM     18  C   LIG    1        3.273   6.726   1.226  0.00  0.00    -0.063 C 
ATOM     19  N   LIG    1        2.970   7.517  -0.057  0.00  0.00    +0.381 N 
ATOM     20  H   LIG    1        1.983   7.731  -0.100  0.00  0.00    -0.086 HD
ATOM     21  H   LIG    1        3.474   8.392  -0.053  0.00  0.00    -0.086 HD
ATOM     22  C   LIG    1        3.371   6.683  -1.284  0.00  0.00    -0.063 C 
ATOM     23  C   LIG    1        2.628   5.329  -1.252  0.00  0.00    +0.089 C 
ENDBRANCH   6  16
TORSDOF 1
