REMARK  Name = DB18515
REMARK                            x       y       z     vdW  Elec       q    Type
REMARK                         _______ _______ _______ _____ _____    ______ ____
ROOT
ATOM      1  N   LIG    1        1.457  -1.730   0.376  0.00  0.00    -0.311 N 
ATOM      2  C   LIG    1        0.107  -2.014   0.855  0.00  0.00    +0.115 C 
ATOM      3  C   LIG    1        0.480  -3.470   1.135  0.00  0.00    -0.001 C 
ATOM      4  C   LIG    1        0.348  -3.885   2.616  0.00  0.00    -0.009 C 
ATOM      5  C   LIG    1       -1.115  -4.150   3.017  0.00  0.00    -0.078 C 
ATOM      6  N   LIG    1       -1.727  -5.211   2.068  0.00  0.00    +0.380 N 
ATOM      7  H   LIG    1       -1.182  -6.057   2.150  0.00  0.00    -0.082 HD
ATOM      8  C   LIG    1       -1.659  -4.757   0.589  0.00  0.00    -0.078 C 
ATOM      9  C   LIG    1       -0.193  -4.498   0.200  0.00  0.00    -0.009 C 
ATOM     10  C   LIG    1        1.898  -3.082   0.718  0.00  0.00    +0.115 C 
ENDROOT
BRANCH   1  12
ATOM     11  C   LIG    1        1.559   0.737   0.286  0.00  0.00    +0.186 A 
ATOM     12  C   LIG    1        2.179  -0.528   0.280  0.00  0.00    +0.167 A 
ATOM     13  N   LIG    1        3.517  -0.668   0.060  0.00  0.00    -0.217 NA
ATOM     14  C   LIG    1        4.232   0.471  -0.119  0.00  0.00    +0.223 A 
ATOM     15  N   LIG    1        3.739   1.733  -0.112  0.00  0.00    -0.240 NA
ATOM     16  C   LIG    1        2.402   1.846   0.091  0.00  0.00    +0.162 A 
BRANCH  11  17
ATOM     17  O   LIG    1        0.199   0.847   0.503  0.00  0.00    -0.450 OA
BRANCH  17  19
ATOM     18  C   LIG    1       -1.071   1.909  -1.268  0.00  0.00    +0.082 A 
ATOM     19  C   LIG    1       -0.501   1.929   0.018  0.00  0.00    +0.141 A 
ATOM     20  C   LIG    1       -0.682   3.043   0.843  0.00  0.00    +0.050 A 
ATOM     21  C   LIG    1       -1.402   4.147   0.388  0.00  0.00    +0.042 A 
ATOM     22  C   LIG    1       -1.950   4.141  -0.893  0.00  0.00    +0.124 A 
ATOM     23  F   LIG    1       -2.645   5.213  -1.335  0.00  0.00    -0.205 F 
ATOM     24  C   LIG    1       -1.785   3.029  -1.718  0.00  0.00    +0.055 A 
BRANCH  18  26
ATOM     25  N   LIG    1       -1.996  -0.014  -2.522  0.00  0.00    -0.295 N 
ATOM     26  C   LIG    1       -0.895   0.717  -2.176  0.00  0.00    +0.250 C 
ATOM     27  O   LIG    1        0.241   0.463  -2.579  0.00  0.00    -0.270 OA
BRANCH  25  28
ATOM     28  C   LIG    1       -1.927  -1.148  -3.476  0.00  0.00    +0.070 C 
ATOM     29  C   LIG    1       -1.428  -0.774  -4.890  0.00  0.00    +0.028 C 
ATOM     30  C   LIG    1       -1.233  -2.400  -2.900  0.00  0.00    +0.028 C 
ENDBRANCH  25  28
BRANCH  25  32
ATOM     31  C   LIG    1       -3.313  -0.631  -0.454  0.00  0.00    +0.024 C 
ATOM     32  C   LIG    1       -3.284   0.101  -1.807  0.00  0.00    +0.105 C 
ENDBRANCH  25  32
ENDBRANCH  18  26
ENDBRANCH  17  19
ENDBRANCH  11  17
ENDBRANCH   1  12
BRANCH   6  33
ATOM     33  C   LIG    1       -3.199  -5.535   2.435  0.00  0.00    -0.075 C 
BRANCH  33  34
ATOM     34  C   LIG    1       -3.333  -6.203   3.832  0.00  0.00    -0.028 C 
ATOM     35  C   LIG    1       -4.250  -7.454   3.784  0.00  0.00    +0.003 C 
ATOM     36  C   LIG    1       -4.366  -8.119   5.172  0.00  0.00    +0.020 C 
ATOM     37  C   LIG    1       -4.939  -7.105   6.190  0.00  0.00    +0.076 C 
ATOM     38  C   LIG    1       -3.985  -5.895   6.283  0.00  0.00    +0.020 C 
ATOM     39  C   LIG    1       -3.876  -5.216   4.902  0.00  0.00    +0.003 C 
BRANCH  37  40
ATOM     40  N   LIG    1       -4.942  -7.790   7.500  0.00  0.00    -0.191 NA
ATOM     41  H   LIG    1       -4.066  -8.244   7.769  0.00  0.00    +0.148 HD
BRANCH  40  42
ATOM     42  S   LIG    1       -6.414  -8.569   8.076  0.00  0.00    +0.029 S 
ATOM     43  O   LIG    1       -6.001  -9.657   8.968  0.00  0.00    -0.158 OA
ATOM     44  O   LIG    1       -7.272  -8.848   6.918  0.00  0.00    -0.158 OA
BRANCH  42  45
ATOM     45  C   LIG    1       -7.238  -7.234   9.137  0.00  0.00    +0.181 C 
ATOM     46  C   LIG    1       -7.704  -6.052   8.276  0.00  0.00    +0.029 C 
ENDBRANCH  42  45
ENDBRANCH  40  42
ENDBRANCH  37  40
ENDBRANCH  33  34
ENDBRANCH   6  33
TORSDOF 11
