REMARK  Name = DB18057
REMARK                            x       y       z     vdW  Elec       q    Type
REMARK                         _______ _______ _______ _____ _____    ______ ____
ROOT
ATOM      1  C   LIG    1        1.148  -0.282   0.570  0.00  0.00    +0.026 A 
ATOM      2  C   LIG    1        2.073  -1.371   0.807  0.00  0.00    +0.011 A 
ATOM      3  C   LIG    1        1.933  -2.726   1.158  0.00  0.00    +0.011 A 
ATOM      4  C   LIG    1        3.068  -3.514   1.321  0.00  0.00    +0.003 A 
ATOM      5  C   LIG    1        4.343  -2.990   1.140  0.00  0.00    +0.025 A 
ATOM      6  C   LIG    1        4.550  -1.649   0.785  0.00  0.00    +0.058 A 
ATOM      7  C   LIG    1        3.401  -0.854   0.640  0.00  0.00    +0.069 A 
ATOM      8  N   LIG    1        3.264   0.484   0.337  0.00  0.00    -0.359 N 
ATOM      9  H   LIG    1        3.998   1.154   0.159  0.00  0.00    +0.165 HD
ATOM     10  C   LIG    1        1.940   0.823   0.304  0.00  0.00    +0.093 A 
ENDROOT
BRANCH   1  13
ATOM     11  C   LIG    1       -2.302   0.946   0.852  0.00  0.00    +0.220 A 
ATOM     12  N   LIG    1       -0.942   0.907   0.801  0.00  0.00    -0.214 NA
ATOM     13  C   LIG    1       -0.349  -0.300   0.584  0.00  0.00    +0.078 A 
ATOM     14  C   LIG    1       -1.114  -1.458   0.395  0.00  0.00    +0.048 A 
ATOM     15  C   LIG    1       -2.502  -1.321   0.441  0.00  0.00    +0.116 A 
ATOM     16  N   LIG    1       -3.111  -0.129   0.667  0.00  0.00    -0.223 NA
BRANCH  11  17
ATOM     17  N   LIG    1       -2.963   2.163   1.084  0.00  0.00    -0.278 N 
ATOM     18  H   LIG    1       -3.957   2.092   0.926  0.00  0.00    +0.155 HD
BRANCH  17  20
ATOM     19  C   LIG    1       -1.296   3.736   2.170  0.00  0.00    +0.255 A 
ATOM     20  C   LIG    1       -2.410   3.392   1.370  0.00  0.00    +0.115 A 
ATOM     21  C   LIG    1       -2.886   4.622   0.945  0.00  0.00    +0.135 A 
ATOM     22  N   LIG    1       -2.047   5.570   1.464  0.00  0.00    -0.269 N 
ATOM     23  C   LIG    1       -2.109   7.011   1.297  0.00  0.00    +0.172 C 
ATOM     24  N   LIG    1       -1.076   5.038   2.210  0.00  0.00    -0.132 NA
BRANCH  19  26
ATOM     25  C   LIG    1        0.877   3.154   2.940  0.00  0.00    +0.279 C 
ATOM     26  O   LIG    1       -0.516   2.855   2.882  0.00  0.00    -0.477 OA
ENDBRANCH  19  26
ENDBRANCH  17  20
ENDBRANCH  11  17
ENDBRANCH   1  13
BRANCH   6  27
ATOM     27  N   LIG    1        5.826  -1.083   0.617  0.00  0.00    -0.283 N 
ATOM     28  H   LIG    1        5.894  -0.101   0.841  0.00  0.00    +0.155 HD
ATOM     29  C   LIG    1        6.932  -1.681   0.121  0.00  0.00    +0.234 C 
ATOM     30  O   LIG    1        6.968  -2.847  -0.280  0.00  0.00    -0.274 OA
BRANCH  29  31
ATOM     31  C   LIG    1        8.204  -0.793   0.070  0.00  0.00    +0.140 C 
ATOM     32  C   LIG    1        9.056  -1.157   1.296  0.00  0.00    +0.034 C 
BRANCH  31  33
ATOM     33  N   LIG    1        8.910  -1.006  -1.222  0.00  0.00    -0.295 NA
ATOM     34  C   LIG    1       10.317  -0.569  -1.292  0.00  0.00    +0.066 C 
ATOM     35  C   LIG    1       10.464   0.971  -1.231  0.00  0.00    -0.064 C 
ATOM     36  N   LIG    1        9.737   1.569  -2.456  0.00  0.00    +0.379 N 
ATOM     37  H   LIG    1       10.180   1.206  -3.289  0.00  0.00    -0.082 HD
ATOM     38  C   LIG    1        9.835   3.106  -2.455  0.00  0.00    -0.096 C 
ATOM     39  C   LIG    1        8.261   1.111  -2.458  0.00  0.00    -0.064 C 
ATOM     40  C   LIG    1        8.219  -0.438  -2.400  0.00  0.00    +0.066 C 
ENDBRANCH  31  33
ENDBRANCH  29  31
ENDBRANCH   6  27
TORSDOF 7
