REMARK  Name = DB18119
REMARK                            x       y       z     vdW  Elec       q    Type
REMARK                         _______ _______ _______ _____ _____    ______ ____
ROOT
ATOM      1  C   LIG    1        1.446   0.042   0.008  0.00  0.00    +0.163 A 
ATOM      2  C   LIG    1        2.103  -1.155   0.339  0.00  0.00    +0.164 A 
ATOM      3  C   LIG    1        3.507  -1.181   0.407  0.00  0.00    +0.078 A 
ATOM      4  C   LIG    1        4.252  -0.030   0.151  0.00  0.00    +0.085 A 
ATOM      5  N   LIG    1        5.654  -0.126   0.246  0.00  0.00    -0.212 NA
ATOM      6  C   LIG    1        6.408   0.895   0.020  0.00  0.00    +0.233 A 
ATOM      7  O   LIG    1        5.823   2.115  -0.317  0.00  0.00    -0.403 OA
ATOM      8  C   LIG    1        4.471   2.341  -0.439  0.00  0.00    +0.348 A 
ATOM      9  O   LIG    1        4.095   3.473  -0.742  0.00  0.00    -0.244 OA
ATOM     10  C   LIG    1        3.596   1.162  -0.181  0.00  0.00    +0.089 A 
ATOM     11  C   LIG    1        2.203   1.198  -0.254  0.00  0.00    +0.066 A 
ENDROOT
BRANCH   6  12
ATOM     12  C   LIG    1        7.886   0.920   0.087  0.00  0.00    +0.050 A 
ATOM     13  C   LIG    1        8.722  -0.130  -0.369  0.00  0.00    +0.020 A 
ATOM     14  C   LIG    1       10.109  -0.025  -0.229  0.00  0.00    +0.015 A 
ATOM     15  C   LIG    1       10.684   1.106   0.344  0.00  0.00    +0.001 A 
ATOM     16  C   LIG    1        9.874   2.147   0.784  0.00  0.00    +0.001 A 
ATOM     17  C   LIG    1        8.490   2.054   0.657  0.00  0.00    +0.014 A 
BRANCH  13  18
ATOM     18  S   LIG    1        8.114  -1.603  -1.159  0.00  0.00    -0.128 S 
ATOM     19  C   LIG    1        7.469  -1.060  -2.764  0.00  0.00    +0.090 C 
ENDBRANCH  13  18
ENDBRANCH   6  12
BRANCH   2  20
ATOM     20  O   LIG    1        1.306  -2.260   0.584  0.00  0.00    -0.491 OA
ATOM     21  C   LIG    1        1.911  -3.496   0.949  0.00  0.00    +0.277 C 
ENDBRANCH   2  20
BRANCH   1  22
ATOM     22  O   LIG    1        0.063   0.007  -0.039  0.00  0.00    -0.489 OA
BRANCH  22  24
ATOM     23  C   LIG    1       -2.162   0.883  -0.280  0.00  0.00    +0.048 C 
ATOM     24  C   LIG    1       -0.664   1.192  -0.347  0.00  0.00    +0.226 C 
ENDBRANCH  22  24
ENDBRANCH   1  22
TORSDOF 5
