REMARK  Name = DB18041
REMARK                            x       y       z     vdW  Elec       q    Type
REMARK                         _______ _______ _______ _____ _____    ______ ____
ROOT
ATOM      1  C   LIG    1        3.430   1.461  -0.027  0.00  0.00    +0.053 A 
ATOM      2  C   LIG    1        4.440   0.555   0.343  0.00  0.00    +0.036 A 
ATOM      3  C   LIG    1        5.770   1.007   0.336  0.00  0.00    +0.021 A 
ATOM      4  C   LIG    1        7.052   0.441   0.630  0.00  0.00    +0.037 A 
ATOM      5  C   LIG    1        8.020   1.423   0.436  0.00  0.00    +0.049 A 
ATOM      6  N   LIG    1        7.360   2.567   0.029  0.00  0.00    -0.339 N 
ATOM      7  H   LIG    1        7.851   3.425  -0.176  0.00  0.00    +0.167 HD
ATOM      8  C   LIG    1        6.002   2.354  -0.040  0.00  0.00    +0.139 A 
ATOM      9  N   LIG    1        5.068   3.244  -0.389  0.00  0.00    -0.236 NA
ATOM     10  C   LIG    1        3.794   2.769  -0.368  0.00  0.00    +0.136 A 
ENDROOT
BRANCH   5  11
ATOM     11  C   LIG    1        9.507   1.359   0.604  0.00  0.00    -0.002 A 
ATOM     12  C   LIG    1       10.317   2.462   0.297  0.00  0.00    +0.010 A 
ATOM     13  C   LIG    1       11.697   2.390   0.464  0.00  0.00    +0.001 A 
ATOM     14  C   LIG    1       12.275   1.216   0.938  0.00  0.00    +0.000 A 
ATOM     15  C   LIG    1       11.484   0.112   1.244  0.00  0.00    +0.001 A 
ATOM     16  C   LIG    1       10.104   0.184   1.077  0.00  0.00    +0.010 A 
ENDBRANCH   5  11
BRANCH   1  18
ATOM     17  C   LIG    1        1.451  -0.053  -0.095  0.00  0.00    +0.269 C 
ATOM     18  N   LIG    1        2.056   1.159  -0.048  0.00  0.00    -0.279 N 
ATOM     19  H   LIG    1        1.445   1.962  -0.053  0.00  0.00    +0.155 HD
ATOM     20  O   LIG    1        2.049  -1.127  -0.171  0.00  0.00    -0.268 OA
BRANCH  17  25
ATOM     21  C   LIG    1       -3.537  -1.219   0.078  0.00  0.00    +0.065 C 
ATOM     22  C   LIG    1       -2.157  -0.604   0.014  0.00  0.00    +0.037 A 
ATOM     23  C   LIG    1       -0.871  -1.138  -0.018  0.00  0.00    +0.002 A 
ATOM     24  C   LIG    1       -0.513  -2.612   0.037  0.00  0.00    +0.048 C 
ATOM     25  C   LIG    1       -0.006  -0.005  -0.055  0.00  0.00    +0.150 A 
ATOM     26  N   LIG    1       -0.706   1.117  -0.068  0.00  0.00    -0.169 NA
ATOM     27  N   LIG    1       -1.982   0.748  -0.024  0.00  0.00    -0.281 N 
ATOM     28  H   LIG    1       -2.733   1.423  -0.017  0.00  0.00    +0.189 HD
ENDBRANCH  17  25
ENDBRANCH   1  18
TORSDOF 3
