REMARK  Name = DB18068
REMARK                            x       y       z     vdW  Elec       q    Type
REMARK                         _______ _______ _______ _____ _____    ______ ____
ROOT
ATOM      1  C   LIG    1        2.095  -0.122   1.293  0.00  0.00    +0.112 C 
ENDROOT
BRANCH   1   2
ATOM      2  N   LIG    1        1.707  -1.319   2.045  0.00  0.00    -0.311 N 
ATOM      3  H   LIG    1        2.235  -2.157   1.848  0.00  0.00    +0.149 HD
ATOM      4  C   LIG    1        0.743  -1.382   2.985  0.00  0.00    +0.244 C 
ATOM      5  O   LIG    1        0.094  -0.399   3.348  0.00  0.00    -0.270 OA
BRANCH   4   6
ATOM      6  C   LIG    1        0.495  -2.740   3.604  0.00  0.00    +0.038 A 
ATOM      7  C   LIG    1       -0.136  -2.835   4.853  0.00  0.00    +0.034 A 
ATOM      8  C   LIG    1       -0.385  -4.076   5.442  0.00  0.00    +0.060 A 
ATOM      9 CL   LIG    1       -1.162  -4.128   6.987  0.00  0.00    -0.082 Cl
ATOM     10  C   LIG    1       -0.006  -5.249   4.779  0.00  0.00    +0.059 A 
ATOM     11 CL   LIG    1       -0.295  -6.809   5.469  0.00  0.00    -0.082 Cl
ATOM     12  C   LIG    1        0.618  -5.168   3.534  0.00  0.00    +0.022 A 
ATOM     13  C   LIG    1        0.866  -3.926   2.950  0.00  0.00    +0.014 A 
ENDBRANCH   4   6
ENDBRANCH   1   2
BRANCH   1  14
ATOM     14  C   LIG    1        1.375   0.017  -0.066  0.00  0.00    +0.096 C 
BRANCH  14  18
ATOM     15  C   LIG    1       -2.339  -0.087   0.121  0.00  0.00    +0.170 A 
ATOM     16  N   LIG    1       -2.037   1.044   0.734  0.00  0.00    -0.073 NA
ATOM     17  O   LIG    1       -0.647   1.163   0.709  0.00  0.00    -0.359 OA
ATOM     18  C   LIG    1       -0.132   0.096   0.052  0.00  0.00    +0.140 A 
ATOM     19  C   LIG    1       -1.175  -0.707  -0.350  0.00  0.00    +0.080 A 
BRANCH  15  22
ATOM     20  N   LIG    1       -4.630  -0.021   0.667  0.00  0.00    -0.192 N 
ATOM     21  H   LIG    1       -4.607   0.967   0.877  0.00  0.00    +0.183 HD
ATOM     22  C   LIG    1       -3.678  -0.594  -0.097  0.00  0.00    +0.288 C 
ATOM     23  O   LIG    1       -3.884  -1.520  -0.888  0.00  0.00    -0.266 OA
BRANCH  20  24
ATOM     24  O   LIG    1       -5.945  -0.447   0.447  0.00  0.00    -0.295 OA
ATOM     25  H   LIG    1       -5.876  -0.951  -0.368  0.00  0.00    +0.241 HD
ENDBRANCH  20  24
ENDBRANCH  15  22
ENDBRANCH  14  18
ENDBRANCH   1  14
TORSDOF 6
