REMARK  Name = DB18062
REMARK                            x       y       z     vdW  Elec       q    Type
REMARK                         _______ _______ _______ _____ _____    ______ ____
ROOT
ATOM      1  C   LIG    1       -2.669   0.021   0.213  0.00  0.00    +0.089 A 
ATOM      2  C   LIG    1       -2.083   1.059  -0.552  0.00  0.00    +0.150 A 
ATOM      3  N   LIG    1       -0.738   1.270  -0.547  0.00  0.00    -0.197 NA
ATOM      4  C   LIG    1        0.036   0.468   0.230  0.00  0.00    +0.222 A 
ATOM      5  N   LIG    1       -0.439  -0.528   1.014  0.00  0.00    -0.221 NA
ATOM      6  C   LIG    1       -1.779  -0.738   0.991  0.00  0.00    +0.141 A 
ENDROOT
BRANCH   1  14
ATOM      7  C   LIG    1       -6.747  -1.261  -2.437  0.00  0.00    -0.012 C 
ATOM      8  C   LIG    1       -6.213  -0.572  -1.163  0.00  0.00    -0.054 C 
ATOM      9  N   LIG    1       -6.853  -1.248   0.078  0.00  0.00    +0.382 N 
ATOM     10  H   LIG    1       -6.644  -2.236   0.047  0.00  0.00    -0.082 HD
ATOM     11  C   LIG    1       -8.383  -1.042   0.154  0.00  0.00    -0.096 C 
ATOM     12  C   LIG    1       -6.212  -0.679   1.357  0.00  0.00    -0.060 C 
ATOM     13  C   LIG    1       -4.697  -0.941   1.320  0.00  0.00    +0.086 C 
ATOM     14  N   LIG    1       -4.034  -0.273   0.191  0.00  0.00    -0.329 N 
ATOM     15  C   LIG    1       -4.664  -0.666  -1.085  0.00  0.00    +0.089 C 
ENDBRANCH   1  14
BRANCH   2  16
ATOM     16  N   LIG    1       -2.897   1.923  -1.316  0.00  0.00    -0.281 N 
ATOM     17  H   LIG    1       -3.865   1.637  -1.301  0.00  0.00    +0.155 HD
BRANCH  16  18
ATOM     18  C   LIG    1       -2.576   3.095  -1.960  0.00  0.00    +0.146 A 
ATOM     19  N   LIG    1       -3.417   3.585  -2.842  0.00  0.00    -0.156 NA
ATOM     20  N   LIG    1       -2.856   4.714  -3.299  0.00  0.00    -0.270 N 
ATOM     21  C   LIG    1       -3.587   5.508  -4.276  0.00  0.00    +0.172 C 
ATOM     22  C   LIG    1       -1.664   5.012  -2.682  0.00  0.00    +0.038 A 
ATOM     23  C   LIG    1       -0.849   6.253  -2.969  0.00  0.00    +0.065 C 
ATOM     24  C   LIG    1       -1.470   3.949  -1.817  0.00  0.00    +0.068 A 
ENDBRANCH  16  18
ENDBRANCH   2  16
BRANCH   4  25
ATOM     25  N   LIG    1        1.430   0.638   0.262  0.00  0.00    -0.268 N 
ATOM     26  H   LIG    1        1.893   0.012   0.905  0.00  0.00    +0.156 HD
BRANCH  25  27
ATOM     27  C   LIG    1        2.312   1.480  -0.439  0.00  0.00    +0.126 A 
ATOM     28  N   LIG    1        1.842   2.333  -1.390  0.00  0.00    -0.234 NA
ATOM     29  C   LIG    1        2.727   3.119  -2.057  0.00  0.00    +0.076 A 
ATOM     30  C   LIG    1        2.134   4.046  -3.102  0.00  0.00    +0.069 C 
ATOM     31  C   LIG    1        4.101   3.091  -1.800  0.00  0.00    +0.148 A 
ATOM     32  F   LIG    1        4.947   3.901  -2.480  0.00  0.00    -0.203 F 
ATOM     33  C   LIG    1        4.581   2.211  -0.823  0.00  0.00    -0.004 A 
ATOM     34  C   LIG    1        3.674   1.399  -0.134  0.00  0.00    +0.050 A 
BRANCH  33  35
ATOM     35  C   LIG    1        6.064   2.145  -0.501  0.00  0.00    +0.022 C 
ATOM     36  C   LIG    1        6.815   0.835  -0.424  0.00  0.00    +0.009 C 
ATOM     37  C   LIG    1        7.098   1.802  -1.550  0.00  0.00    +0.009 C 
ENDBRANCH  33  35
ENDBRANCH  25  27
ENDBRANCH   4  25
TORSDOF 6
