REMARK  Name = DB18157
REMARK                            x       y       z     vdW  Elec       q    Type
REMARK                         _______ _______ _______ _____ _____    ______ ____
ROOT
ATOM      1  C   LIG    1       -2.914  -0.289   0.182  0.00  0.00    +0.124 A 
ATOM      2  C   LIG    1       -2.131  -1.374  -0.234  0.00  0.00    +0.066 A 
ATOM      3  C   LIG    1       -0.739  -1.279  -0.276  0.00  0.00    +0.049 A 
ATOM      4 CL   LIG    1        0.145  -2.668  -0.810  0.00  0.00    -0.083 Cl
ATOM      5  C   LIG    1       -0.096  -0.086   0.105  0.00  0.00    -0.006 A 
ATOM      6  C   LIG    1       -0.884   1.003   0.520  0.00  0.00    +0.049 A 
ATOM      7 CL   LIG    1       -0.192   2.517   0.999  0.00  0.00    -0.083 Cl
ATOM      8  C   LIG    1       -2.274   0.891   0.555  0.00  0.00    +0.066 A 
ENDROOT
BRANCH   1   9
ATOM      9  O   LIG    1       -4.294  -0.298   0.251  0.00  0.00    -0.483 OA
BRANCH   9  10
ATOM     10  C   LIG    1       -5.006  -1.475  -0.136  0.00  0.00    +0.324 C 
BRANCH  10  14
ATOM     11  C   LIG    1       -8.761  -2.246  -0.335  0.00  0.00    +0.128 C 
ATOM     12  N   LIG    1       -7.303  -2.252  -0.373  0.00  0.00    -0.316 N 
ATOM     13  H   LIG    1       -6.869  -3.099  -0.711  0.00  0.00    +0.148 HD
ATOM     14  C   LIG    1       -6.515  -1.226  -0.007  0.00  0.00    +0.250 C 
ATOM     15  O   LIG    1       -6.947  -0.147   0.404  0.00  0.00    -0.272 OA
ENDBRANCH  10  14
ENDBRANCH   9  10
ENDBRANCH   1   9
BRANCH   5  16
ATOM     16  C   LIG    1        1.434   0.016   0.067  0.00  0.00    +0.073 C 
BRANCH  16  17
ATOM     17  C   LIG    1        2.125  -0.592   1.283  0.00  0.00    -0.042 A 
ATOM     18  C   LIG    1        2.830  -1.795   1.167  0.00  0.00    +0.011 A 
ATOM     19  C   LIG    1        3.480  -2.367   2.271  0.00  0.00    -0.003 A 
ATOM     20  C   LIG    1        3.428  -1.692   3.505  0.00  0.00    +0.120 A 
ATOM     21  C   LIG    1        2.740  -0.484   3.619  0.00  0.00    +0.046 A 
ATOM     22  C   LIG    1        2.095   0.065   2.514  0.00  0.00    +0.007 A 
BRANCH  19  23
ATOM     23  C   LIG    1        4.244  -3.698   2.140  0.00  0.00    +0.016 C 
ATOM     24  C   LIG    1        3.781  -4.601   0.975  0.00  0.00    +0.012 C 
ATOM     25  C   LIG    1        5.767  -3.472   2.087  0.00  0.00    +0.012 C 
ENDBRANCH  19  23
BRANCH  20  26
ATOM     26  O   LIG    1        4.044  -2.196   4.623  0.00  0.00    -0.506 OA
ATOM     27  H   LIG    1        3.932  -1.636   5.394  0.00  0.00    +0.292 HD
ENDBRANCH  20  26
ENDBRANCH  16  17
ENDBRANCH   5  16
TORSDOF 7
