REMARK  Name = DB18707
REMARK                            x       y       z     vdW  Elec       q    Type
REMARK                         _______ _______ _______ _____ _____    ______ ____
ROOT
ATOM      1  C   LIG    1        1.518   0.098  -0.239  0.00  0.00    +0.096 C 
ATOM      2  C   LIG    1        2.211  -1.050  -0.015  0.00  0.00    +0.089 C 
ENDROOT
BRANCH   1   7
ATOM      3  C   LIG    1       -3.502  -0.944  -0.077  0.00  0.00    +0.069 C 
ATOM      4  C   LIG    1       -2.118  -0.408  -0.356  0.00  0.00    +0.081 A 
ATOM      5  N   LIG    1       -1.950   0.558  -1.231  0.00  0.00    -0.083 NA
ATOM      6  O   LIG    1       -0.581   0.822  -1.263  0.00  0.00    -0.354 OA
ATOM      7  C   LIG    1        0.061   0.005  -0.384  0.00  0.00    +0.174 A 
ATOM      8  C   LIG    1       -0.901  -0.796   0.200  0.00  0.00    +0.076 A 
ENDBRANCH   1   7
BRANCH   1   9
ATOM      9  C   LIG    1        2.218   1.380  -0.335  0.00  0.00    +0.253 C 
ATOM     10  N   LIG    1        1.468   2.443   0.041  0.00  0.00    -0.281 N 
ATOM     11  H   LIG    1        0.497   2.253   0.238  0.00  0.00    +0.155 HD
ATOM     12  O   LIG    1        3.388   1.471  -0.716  0.00  0.00    -0.270 OA
BRANCH  10  13
ATOM     13  C   LIG    1        1.817   3.805   0.097  0.00  0.00    +0.034 A 
ATOM     14  C   LIG    1        3.135   4.280   0.196  0.00  0.00    +0.025 A 
ATOM     15  C   LIG    1        3.376   5.650   0.258  0.00  0.00    +0.022 A 
ATOM     16  C   LIG    1        2.309   6.545   0.229  0.00  0.00    +0.041 A 
ATOM     17 CL   LIG    1        2.612   8.242   0.306  0.00  0.00    -0.084 Cl
ATOM     18  C   LIG    1        0.999   6.080   0.145  0.00  0.00    +0.022 A 
ATOM     19  C   LIG    1        0.753   4.711   0.084  0.00  0.00    +0.025 A 
ENDBRANCH  10  13
ENDBRANCH   1   9
BRANCH   2  20
ATOM     20  N   LIG    1        3.565  -1.265   0.178  0.00  0.00    -0.320 N 
ATOM     21  H   LIG    1        4.173  -0.465   0.067  0.00  0.00    +0.152 HD
BRANCH  20  22
ATOM     22  C   LIG    1        4.259  -2.485   0.137  0.00  0.00    +0.031 A 
ATOM     23  C   LIG    1        3.640  -3.720   0.379  0.00  0.00    +0.024 A 
ATOM     24  C   LIG    1        4.383  -4.896   0.322  0.00  0.00    +0.022 A 
ATOM     25  C   LIG    1        5.744  -4.843   0.030  0.00  0.00    +0.041 A 
ATOM     26 CL   LIG    1        6.663  -6.302  -0.043  0.00  0.00    -0.084 Cl
ATOM     27  C   LIG    1        6.369  -3.619  -0.202  0.00  0.00    +0.022 A 
ATOM     28  C   LIG    1        5.626  -2.443  -0.146  0.00  0.00    +0.024 A 
ENDBRANCH  20  22
ENDBRANCH   2  20
TORSDOF 5
