REMARK  Name = DB18708
REMARK                            x       y       z     vdW  Elec       q    Type
REMARK                         _______ _______ _______ _____ _____    ______ ____
ROOT
ATOM      1  C   LIG    1        3.314   0.121  -1.188  0.00  0.00    +0.235 A 
ATOM      2  N   LIG    1        4.043   0.220  -0.039  0.00  0.00    -0.111 NA
ATOM      3  N   LIG    1        5.386   0.219  -0.089  0.00  0.00    -0.141 NA
ATOM      4  C   LIG    1        6.038   0.116  -1.285  0.00  0.00    +0.148 A 
ATOM      5  C   LIG    1        5.322   0.009  -2.485  0.00  0.00    +0.040 A 
ATOM      6  C   LIG    1        3.930   0.016  -2.434  0.00  0.00    +0.071 A 
ENDROOT
BRANCH   4   7
ATOM      7  C   LIG    1        7.551   0.108  -1.287  0.00  0.00    +0.264 C 
ATOM      8  N   LIG    1        8.159   0.523  -0.156  0.00  0.00    -0.307 N 
ATOM      9  H   LIG    1        7.577   0.744   0.639  0.00  0.00    +0.149 HD
ATOM     10  O   LIG    1        8.175  -0.247  -2.289  0.00  0.00    -0.268 OA
BRANCH   8  11
ATOM     11  C   LIG    1        9.604   0.566   0.076  0.00  0.00    +0.078 C 
ATOM     12  C   LIG    1       10.018   1.527   1.211  0.00  0.00    +0.050 C 
ATOM     13  C   LIG    1       11.529   1.476   1.509  0.00  0.00    +0.161 C 
ATOM     14  O   LIG    1       11.942   0.131   1.728  0.00  0.00    -0.380 OA
ATOM     15  C   LIG    1       11.785  -0.697   0.581  0.00  0.00    +0.161 C 
ATOM     16  C   LIG    1       10.294  -0.814   0.206  0.00  0.00    +0.050 C 
ENDBRANCH   8  11
ENDBRANCH   4   7
BRANCH   1  17
ATOM     17  O   LIG    1        1.932   0.121  -1.127  0.00  0.00    -0.470 OA
BRANCH  17  18
ATOM     18  C   LIG    1        1.283   0.113   0.143  0.00  0.00    +0.272 C 
BRANCH  18  21
ATOM     19  C   LIG    1       -1.011   2.537  -0.227  0.00  0.00    +0.089 C 
ATOM     20  C   LIG    1       -1.122   1.032  -0.215  0.00  0.00    +0.141 A 
ATOM     21  C   LIG    1       -0.210  -0.002  -0.079  0.00  0.00    +0.059 A 
ATOM     22  C   LIG    1       -1.013  -1.156  -0.163  0.00  0.00    +0.121 A 
ATOM     23  N   LIG    1       -2.287  -0.862  -0.318  0.00  0.00    -0.078 NA
ATOM     24  O   LIG    1       -2.369   0.525  -0.359  0.00  0.00    -0.359 OA
BRANCH  22  25
ATOM     25  C   LIG    1       -0.584  -2.589  -0.093  0.00  0.00    +0.022 A 
ATOM     26  C   LIG    1        0.614  -3.022  -0.677  0.00  0.00    +0.121 A 
ATOM     27  N   LIG    1        1.039  -4.310  -0.648  0.00  0.00    -0.260 NA
ATOM     28  C   LIG    1        0.255  -5.223  -0.019  0.00  0.00    +0.038 A 
ATOM     29  C   LIG    1        0.773  -6.649  -0.020  0.00  0.00    +0.065 C 
ATOM     30  C   LIG    1       -0.957  -4.887   0.588  0.00  0.00    +0.024 A 
ATOM     31  C   LIG    1       -1.375  -3.555   0.546  0.00  0.00    +0.013 A 
ENDBRANCH  22  25
ENDBRANCH  18  21
ENDBRANCH  17  18
ENDBRANCH   1  17
TORSDOF 6
