REMARK  Name = DB18365
REMARK                            x       y       z     vdW  Elec       q    Type
REMARK                         _______ _______ _______ _____ _____    ______ ____
ROOT
ATOM      1  C   LIG    1        5.138  -1.015  -1.708  0.00  0.00    +0.014 A 
ATOM      2  C   LIG    1        5.418  -0.817  -3.094  0.00  0.00    +0.050 A 
ATOM      3  C   LIG    1        6.620  -1.302  -3.642  0.00  0.00    +0.063 A 
ATOM      4  C   LIG    1        7.514  -1.954  -2.803  0.00  0.00    +0.167 A 
ATOM      5  O   LIG    1        8.709  -2.522  -3.110  0.00  0.00    -0.453 OA
ATOM      6  C   LIG    1        9.273  -2.898  -1.882  0.00  0.00    +0.466 C 
ATOM      7  O   LIG    1        8.257  -2.857  -0.916  0.00  0.00    -0.453 OA
ATOM      8  C   LIG    1        7.244  -2.152  -1.483  0.00  0.00    +0.167 A 
ATOM      9  C   LIG    1        6.062  -1.710  -0.905  0.00  0.00    +0.060 A 
ENDROOT
BRANCH   2  10
ATOM     10  C   LIG    1        4.434  -0.160  -4.038  0.00  0.00    +0.248 C 
ATOM     11  N   LIG    1        3.998   1.106  -3.781  0.00  0.00    -0.289 N 
ATOM     12  C   LIG    1        2.909   1.698  -4.588  0.00  0.00    +0.095 C 
ATOM     13  C   LIG    1        1.855   2.207  -3.572  0.00  0.00    +0.059 C 
ATOM     14  C   LIG    1        2.442   3.121  -2.505  0.00  0.00    -0.041 A 
ATOM     15  C   LIG    1        1.638   4.053  -1.838  0.00  0.00    +0.004 A 
ATOM     16  C   LIG    1        2.166   4.873  -0.844  0.00  0.00    +0.000 A 
ATOM     17  C   LIG    1        3.511   4.774  -0.510  0.00  0.00    +0.000 A 
ATOM     18  C   LIG    1        4.322   3.855  -1.173  0.00  0.00    +0.005 A 
ATOM     19  C   LIG    1        3.806   3.018  -2.168  0.00  0.00    -0.027 A 
ATOM     20  C   LIG    1        4.729   2.039  -2.896  0.00  0.00    +0.143 C 
ATOM     21  O   LIG    1        4.017  -0.833  -4.984  0.00  0.00    -0.270 OA
BRANCH  12  22
ATOM     22  C   LIG    1        3.349   2.702  -5.686  0.00  0.00    +0.107 C 
BRANCH  22  23
ATOM     23  N   LIG    1        2.239   3.297  -6.442  0.00  0.00    -0.296 NA
ATOM     24  C   LIG    1        2.721   4.412  -7.267  0.00  0.00    +0.112 C 
ATOM     25  C   LIG    1        1.589   5.021  -8.121  0.00  0.00    +0.175 C 
ATOM     26  O   LIG    1        0.972   4.006  -8.903  0.00  0.00    -0.377 OA
ATOM     27  C   LIG    1        0.399   2.981  -8.100  0.00  0.00    +0.175 C 
ATOM     28  C   LIG    1        1.487   2.310  -7.234  0.00  0.00    +0.112 C 
ENDBRANCH  22  23
ENDBRANCH  12  22
ENDBRANCH   2  10
BRANCH   1  36
ATOM     29  C   LIG    1        1.710  -0.153  -0.544  0.00  0.00    +0.059 A 
ATOM     30  C   LIG    1        2.490   0.474   0.424  0.00  0.00    +0.031 A 
ATOM     31  C   LIG    1        2.090   1.336   1.620  0.00  0.00    +0.054 C 
ATOM     32  C   LIG    1        3.254   1.425   2.619  0.00  0.00    +0.008 C 
ATOM     33  C   LIG    1        4.559   1.792   1.904  0.00  0.00    +0.022 C 
ATOM     34  C   LIG    1        4.979   0.717   0.880  0.00  0.00    +0.122 C 
ATOM     35  N   LIG    1        3.824   0.255   0.086  0.00  0.00    -0.343 N 
ATOM     36  C   LIG    1        3.873  -0.555  -1.040  0.00  0.00    +0.051 A 
ATOM     37  C   LIG    1        2.567  -0.815  -1.417  0.00  0.00    +0.041 A 
BRANCH  29  39
ATOM     38  N   LIG    1       -0.343  -1.344  -0.097  0.00  0.00    -0.236 N 
ATOM     39  C   LIG    1        0.269  -0.207  -0.575  0.00  0.00    +0.257 C 
ATOM     40  O   LIG    1       -0.334   0.780  -1.001  0.00  0.00    -0.269 OA
BRANCH  38  44
ATOM     41  C   LIG    1        1.876  -4.500   1.544  0.00  0.00    +0.117 A 
ATOM     42  C   LIG    1        1.613  -3.370   2.317  0.00  0.00    +0.047 A 
ATOM     43  C   LIG    1        0.871  -2.322   1.779  0.00  0.00    +0.027 A 
ATOM     44  C   LIG    1        0.403  -2.408   0.463  0.00  0.00    +0.042 A 
ATOM     45  C   LIG    1        0.661  -3.547  -0.308  0.00  0.00    +0.027 A 
ATOM     46  C   LIG    1        1.403  -4.592   0.236  0.00  0.00    +0.047 A 
BRANCH  41  47
ATOM     47  O   LIG    1        2.605  -5.530   2.075  0.00  0.00    -0.507 OA
ATOM     48  H   LIG    1        2.870  -5.371   2.984  0.00  0.00    +0.292 HD
ENDBRANCH  41  47
ENDBRANCH  38  44
BRANCH  38  49
ATOM     49  C   LIG    1       -1.749  -1.521  -0.204  0.00  0.00    +0.042 A 
ATOM     50  C   LIG    1       -2.479  -1.959   0.911  0.00  0.00    +0.024 A 
ATOM     51  C   LIG    1       -3.854  -2.153   0.820  0.00  0.00    +0.002 A 
ATOM     52  C   LIG    1       -4.507  -1.917  -0.388  0.00  0.00    +0.000 A 
ATOM     53  C   LIG    1       -3.796  -1.491  -1.507  0.00  0.00    +0.002 A 
ATOM     54  C   LIG    1       -2.421  -1.296  -1.418  0.00  0.00    +0.024 A 
ENDBRANCH  38  49
ENDBRANCH  29  39
ENDBRANCH   1  36
TORSDOF 8
