REMARK  Name = DB18442
REMARK                            x       y       z     vdW  Elec       q    Type
REMARK                         _______ _______ _______ _____ _____    ______ ____
ROOT
ATOM      1  N   LIG    1        2.456  -4.925   0.103  0.00  0.00    -0.265 N 
ATOM      2  H   LIG    1        1.500  -5.247   0.131  0.00  0.00    +0.157 HD
ATOM      3  C   LIG    1        3.428  -5.870   0.081  0.00  0.00    +0.249 C 
ATOM      4  O   LIG    1        4.635  -5.616   0.030  0.00  0.00    -0.270 OA
ENDROOT
BRANCH   1   9
ATOM      5  C   LIG    1        2.103  -1.363   0.075  0.00  0.00    +0.038 A 
ATOM      6  N   LIG    1        3.450  -1.605   0.046  0.00  0.00    -0.280 N 
ATOM      7  H   LIG    1        4.157  -0.883   0.020  0.00  0.00    +0.189 HD
ATOM      8  N   LIG    1        3.774  -2.901   0.051  0.00  0.00    -0.158 NA
ATOM      9  C   LIG    1        2.621  -3.545   0.085  0.00  0.00    +0.147 A 
ATOM     10  C   LIG    1        1.553  -2.637   0.102  0.00  0.00    +0.068 A 
BRANCH   5  11
ATOM     11  C   LIG    1        1.529   0.039   0.075  0.00  0.00    +0.059 C 
BRANCH  11  12
ATOM     12  C   LIG    1       -0.011   0.067   0.036  0.00  0.00    +0.041 C 
BRANCH  12  17
ATOM     13  C   LIG    1       -1.333   3.440  -1.183  0.00  0.00    +0.124 A 
ATOM     14  C   LIG    1       -1.582   4.082   0.041  0.00  0.00    +0.091 A 
ATOM     15  C   LIG    1       -1.331   3.446   1.258  0.00  0.00    +0.124 A 
ATOM     16  C   LIG    1       -0.821   2.138   1.246  0.00  0.00    +0.049 A 
ATOM     17  C   LIG    1       -0.569   1.483   0.038  0.00  0.00    -0.040 A 
ATOM     18  C   LIG    1       -0.825   2.140  -1.167  0.00  0.00    +0.049 A 
BRANCH  13  20
ATOM     19  C   LIG    1       -2.074   5.328  -2.501  0.00  0.00    +0.277 C 
ATOM     20  O   LIG    1       -1.555   4.005  -2.424  0.00  0.00    -0.495 OA
ENDBRANCH  13  20
BRANCH  15  21
ATOM     21  O   LIG    1       -1.608   4.166   2.405  0.00  0.00    -0.495 OA
ATOM     22  C   LIG    1       -1.369   3.569   3.674  0.00  0.00    +0.277 C 
ENDBRANCH  15  21
ENDBRANCH  12  17
ENDBRANCH  11  12
ENDBRANCH   5  11
ENDBRANCH   1   9
BRANCH   3  23
ATOM     23  C   LIG    1        2.959  -7.313   0.108  0.00  0.00    +0.037 A 
ATOM     24  C   LIG    1        1.617  -7.653   0.333  0.00  0.00    +0.015 A 
ATOM     25  C   LIG    1        1.216  -8.986   0.358  0.00  0.00    +0.024 A 
ATOM     26  C   LIG    1        2.137 -10.026   0.166  0.00  0.00    +0.030 A 
ATOM     27  C   LIG    1        3.476  -9.678  -0.072  0.00  0.00    +0.024 A 
ATOM     28  C   LIG    1        3.881  -8.347  -0.095  0.00  0.00    +0.015 A 
BRANCH  26  29
ATOM     29  N   LIG    1        1.718 -11.362   0.178  0.00  0.00    -0.333 N 
ATOM     30  C   LIG    1        2.598 -12.462  -0.261  0.00  0.00    +0.089 C 
ATOM     31  C   LIG    1        1.899 -13.774  -0.686  0.00  0.00    -0.057 C 
ATOM     32  C   LIG    1        2.871 -14.945  -0.908  0.00  0.00    -0.012 C 
ATOM     33  N   LIG    1        0.899 -14.225   0.386  0.00  0.00    +0.384 N 
ATOM     34  H   LIG    1        0.371 -15.011   0.035  0.00  0.00    -0.085 HD
ATOM     35  H   LIG    1        1.399 -14.551   1.201  0.00  0.00    -0.085 HD
ATOM     36  C   LIG    1       -0.071 -13.105   0.786  0.00  0.00    -0.057 C 
ATOM     37  C   LIG    1       -0.926 -13.655   1.940  0.00  0.00    -0.012 C 
ATOM     38  C   LIG    1        0.710 -11.822   1.154  0.00  0.00    +0.089 C 
ENDBRANCH  26  29
ENDBRANCH   3  23
TORSDOF 8
