REMARK  Name = DB18169
REMARK                            x       y       z     vdW  Elec       q    Type
REMARK                         _______ _______ _______ _____ _____    ______ ____
ROOT
ATOM      1  CA  ILE A 14        9.684   3.333  -5.199  0.00  0.00    +0.162 C 
ATOM      2  C   ILE A 14       10.841   4.192  -4.651  0.00  0.00    +0.234 C 
ATOM      3  O   ILE A 14       11.076   5.296  -5.143  0.00  0.00    -0.274 OA
ATOM      4  N   SER A  1       11.457   3.682  -3.568  0.00  0.00    -0.301 N 
ATOM      5  H   SER A  1       11.164   2.765  -3.263  0.00  0.00    +0.150 HD
ATOM      6  CA  SER A  1       12.434   4.320  -2.672  0.00  0.00    +0.184 C 
ATOM      7  C   SER A  1       11.824   5.417  -1.769  0.00  0.00    +0.236 C 
ATOM      8  O   SER A  1       12.033   5.375  -0.557  0.00  0.00    -0.274 OA
ATOM      9  N   LYS A  2       11.045   6.332  -2.366  0.00  0.00    -0.302 N 
ATOM     10  H   LYS A  2       10.948   6.286  -3.372  0.00  0.00    +0.150 HD
ATOM     11  CA  LYS A  2       10.287   7.407  -1.732  0.00  0.00    +0.159 C 
ATOM     12  C   LYS A  2        9.357   8.015  -2.794  0.00  0.00    +0.234 C 
ATOM     13  O   LYS A  2        9.803   8.290  -3.909  0.00  0.00    -0.274 OA
ATOM     14  N   TYR A  3        8.082   8.213  -2.426  0.00  0.00    -0.302 N 
ATOM     15  H   TYR A  3        7.783   7.975  -1.490  0.00  0.00    +0.150 HD
ATOM     16  CA  TYR A  3        7.060   8.806  -3.289  0.00  0.00    +0.163 C 
ATOM     17  C   TYR A  3        5.854   9.238  -2.440  0.00  0.00    +0.234 C 
ATOM     18  O   TYR A  3        5.528   8.570  -1.456  0.00  0.00    -0.274 OA
ATOM     19  N   ILE A  4        5.210  10.338  -2.865  0.00  0.00    -0.302 N 
ATOM     20  H   ILE A  4        5.546  10.806  -3.695  0.00  0.00    +0.150 HD
ATOM     21  CA  ILE A  4        4.035  10.952  -2.242  0.00  0.00    +0.162 C 
ATOM     22  C   ILE A  4        2.808  10.013  -2.187  0.00  0.00    +0.234 C 
ATOM     23  O   ILE A  4        2.545   9.286  -3.146  0.00  0.00    -0.274 OA
ATOM     24  N   LEU A  5        2.088  10.063  -1.052  0.00  0.00    -0.302 N 
ATOM     25  H   LEU A  5        2.390  10.693  -0.324  0.00  0.00    +0.150 HD
ATOM     26  CA  LEU A  5        0.883   9.291  -0.736  0.00  0.00    +0.159 C 
ATOM     27  C   LEU A  5        1.178   7.778  -0.669  0.00  0.00    +0.234 C 
ATOM     28  O   LEU A  5        1.762   7.346   0.325  0.00  0.00    -0.274 OA
ATOM     29  N   ARG A  6        0.765   7.021  -1.705  0.00  0.00    -0.302 N 
ATOM     30  H   ARG A  6        0.306   7.494  -2.470  0.00  0.00    +0.150 HD
ATOM     31  CA  ARG A  6        0.810   5.558  -1.841  0.00  0.00    +0.159 C 
ATOM     32  C   ARG A  6       -0.175   4.846  -0.898  0.00  0.00    +0.234 C 
ATOM     33  O   ARG A  6       -0.218   5.128   0.300  0.00  0.00    -0.274 OA
ATOM     34  N   TRP A  7       -0.919   3.889  -1.476  0.00  0.00    -0.302 N 
ATOM     35  H   TRP A  7       -0.805   3.708  -2.462  0.00  0.00    +0.150 HD
ATOM     36  CA  TRP A  7       -1.920   3.061  -0.798  0.00  0.00    +0.163 C 
ATOM     37  C   TRP A  7       -1.281   1.717  -0.403  0.00  0.00    +0.234 C 
ATOM     38  O   TRP A  7       -1.769   0.652  -0.781  0.00  0.00    -0.274 OA
ATOM     39  N   ARG A  8       -0.157   1.821   0.325  0.00  0.00    -0.302 N 
ATOM     40  H   ARG A  8        0.159   2.744   0.584  0.00  0.00    +0.150 HD
ATOM     41  CA  ARG A  8        0.709   0.725   0.752  0.00  0.00    +0.159 C 
ATOM     42  C   ARG A  8        0.046  -0.201   1.801  0.00  0.00    +0.237 C 
ATOM     43  O   ARG A  8       -0.784   0.275   2.576  0.00  0.00    -0.274 OA
ATOM     44  N   PRO A  9        0.461  -1.490   1.862  0.00  0.00    -0.288 N 
ATOM     45  CD  PRO A  9        0.040  -2.380   2.947  0.00  0.00    +0.109 C 
ATOM     46  CG  PRO A  9        0.566  -3.762   2.574  0.00  0.00    +0.021 C 
ATOM     47  CB  PRO A  9        1.764  -3.449   1.692  0.00  0.00    +0.033 C 
ATOM     48  CA  PRO A  9        1.366  -2.179   0.921  0.00  0.00    +0.162 C 
ATOM     49  C   PRO A  9        0.681  -2.511  -0.420  0.00  0.00    +0.234 C 
ATOM     50  O   PRO A  9       -0.394  -3.108  -0.420  0.00  0.00    -0.274 OA
ATOM     51  N   LYS A 10        1.341  -2.111  -1.524  0.00  0.00    -0.302 N 
ATOM     52  H   LYS A 10        2.204  -1.606  -1.392  0.00  0.00    +0.150 HD
ATOM     53  CA  LYS A 10        0.960  -2.308  -2.931  0.00  0.00    +0.159 C 
ATOM     54  C   LYS A 10       -0.310  -1.508  -3.315  0.00  0.00    +0.237 C 
ATOM     55  O   LYS A 10       -1.404  -1.949  -2.963  0.00  0.00    -0.274 OA
ATOM     56  N   PRO A 11       -0.179  -0.377  -4.057  0.00  0.00    -0.288 N 
ATOM     57  CD  PRO A 11       -1.349   0.313  -4.597  0.00  0.00    +0.109 C 
ATOM     58  CG  PRO A 11       -0.835   1.036  -5.830  0.00  0.00    +0.021 C 
ATOM     59  CB  PRO A 11        0.564   1.441  -5.409  0.00  0.00    +0.033 C 
ATOM     60  CA  PRO A 11        1.062   0.287  -4.513  0.00  0.00    +0.162 C 
ATOM     61  C   PRO A 11        1.947   0.817  -3.374  0.00  0.00    +0.234 C 
ATOM     62  O   PRO A 11        1.462   1.561  -2.522  0.00  0.00    -0.274 OA
ATOM     63  N   SER A 12        3.228   0.420  -3.404  0.00  0.00    -0.301 N 
ATOM     64  H   SER A 12        3.539  -0.191  -4.146  0.00  0.00    +0.150 HD
ATOM     65  CA  SER A 12        4.269   0.880  -2.486  0.00  0.00    +0.184 C 
ATOM     66  C   SER A 12        5.143   1.954  -3.153  0.00  0.00    +0.236 C 
ATOM     67  O   SER A 12        5.226   2.010  -4.382  0.00  0.00    -0.274 OA
ATOM     68  N   HIS A 13        5.801   2.771  -2.314  0.00  0.00    -0.302 N 
ATOM     69  H   HIS A 13        5.674   2.656  -1.319  0.00  0.00    +0.150 HD
ATOM     70  CA  HIS A 13        6.780   3.783  -2.719  0.00  0.00    +0.161 C 
ATOM     71  C   HIS A 13        8.039   3.158  -3.346  0.00  0.00    +0.234 C 
ATOM     72  O   HIS A 13        8.587   2.207  -2.788  0.00  0.00    -0.274 OA
ATOM     73  N   ILE A 14        8.472   3.728  -4.481  0.00  0.00    -0.302 N 
ATOM     74  H   ILE A 14        7.965   4.508  -4.874  0.00  0.00    +0.150 HD
ENDROOT
BRANCH   1  75
ATOM     75  CB  ILE A 14        9.522   3.522  -6.740  0.00  0.00    +0.015 C 
ATOM     76  CG2 ILE A 14       10.814   3.211  -7.533  0.00  0.00    +0.010 C 
BRANCH  75  78
ATOM     77  CD1 ILE A 14        7.957   2.984  -8.731  0.00  0.00    +0.004 C 
ATOM     78  CG1 ILE A 14        8.354   2.661  -7.283  0.00  0.00    +0.002 C 
ENDBRANCH  75  78
ENDBRANCH   1  75
BRANCH  21  79
ATOM     79  CB  ILE A  4        3.660  12.273  -2.986  0.00  0.00    +0.015 C 
ATOM     80  CG2 ILE A  4        3.301  12.071  -4.475  0.00  0.00    +0.010 C 
BRANCH  79  81
ATOM     81  CG1 ILE A  4        2.555  13.109  -2.297  0.00  0.00    +0.002 C 
ATOM     82  CD1 ILE A  4        2.879  13.513  -0.851  0.00  0.00    +0.004 C 
ENDBRANCH  79  81
ENDBRANCH  21  79
BRANCH  11  83
ATOM     83  CB  LYS A  2       11.220   8.455  -1.071  0.00  0.00    +0.032 C 
BRANCH  83  84
ATOM     84  CG  LYS A  2       12.208   9.168  -2.019  0.00  0.00    +0.000 C 
BRANCH  84  85
ATOM     85  CD  LYS A  2       13.191  10.076  -1.269  0.00  0.00    -0.019 C 
BRANCH  85  86
ATOM     86  CE  LYS A  2       14.183  10.768  -2.218  0.00  0.00    -0.086 C 
BRANCH  86  87
ATOM     87  NZ  LYS A  2       15.131  11.626  -1.487  0.00  0.00    +0.378 N 
ATOM     88  HZ1 LYS A  2       14.623  12.342  -0.987  0.00  0.00    -0.090 HD
ATOM     89  HZ2 LYS A  2       15.656  11.066  -0.831  0.00  0.00    -0.090 HD
ATOM     90  HZ3 LYS A  2       15.766  12.060  -2.142  0.00  0.00    -0.090 HD
ENDBRANCH  86  87
ENDBRANCH  85  86
ENDBRANCH  84  85
ENDBRANCH  83  84
ENDBRANCH  11  83
BRANCH   6  91
ATOM     91  CB  SER A  1       13.735   4.737  -3.407  0.00  0.00    +0.187 C 
BRANCH  91  92
ATOM     92  OG  SER A  1       13.702   6.030  -3.981  0.00  0.00    -0.393 OA
ATOM     93  H   SER A  1       14.513   6.164  -4.477  0.00  0.00    +0.209 HD
ENDBRANCH  91  92
ENDBRANCH   6  91
BRANCH  36  94
ATOM     94  CB  TRP A  7       -3.161   2.915  -1.710  0.00  0.00    +0.069 C 
BRANCH  94  95
ATOM     95  CG  TRP A  7       -3.670   4.184  -2.333  0.00  0.00    -0.020 A 
ATOM     96  CD2 TRP A  7       -3.185   4.854  -3.539  0.00  0.00    +0.003 A 
ATOM     97  CE3 TRP A  7       -2.192   4.564  -4.505  0.00  0.00    +0.010 A 
ATOM     98  CZ3 TRP A  7       -1.940   5.437  -5.582  0.00  0.00    +0.001 A 
ATOM     99  CH2 TRP A  7       -2.683   6.625  -5.724  0.00  0.00    +0.002 A 
ATOM    100  CZ2 TRP A  7       -3.681   6.943  -4.784  0.00  0.00    +0.026 A 
ATOM    101  CE2 TRP A  7       -3.917   6.067  -3.709  0.00  0.00    +0.047 A 
ATOM    102  NE1 TRP A  7       -4.781   6.096  -2.634  0.00  0.00    -0.360 N 
ATOM    103  HE1 TRP A  7       -5.449   6.827  -2.435  0.00  0.00    +0.165 HD
ATOM    104  CD1 TRP A  7       -4.623   4.993  -1.819  0.00  0.00    +0.087 A 
ENDBRANCH  94  95
ENDBRANCH  36  94
BRANCH  41 105
ATOM    105  CB  ARG A  8        2.071   1.290   1.240  0.00  0.00    +0.033 C 
BRANCH 105 106
ATOM    106  CG  ARG A  8        2.086   2.628   2.017  0.00  0.00    +0.017 C 
BRANCH 106 107
ATOM    107  CD  ARG A  8        1.107   2.731   3.201  0.00  0.00    +0.084 C 
BRANCH 107 108
ATOM    108  NE  ARG A  8        1.325   3.954   3.991  0.00  0.00    -0.283 NA
ATOM    109  HE  ARG A  8        0.897   4.789   3.616  0.00  0.00    +0.125 HD
BRANCH 108 110
ATOM    110  CZ  ARG A  8        2.051   4.078   5.119  0.00  0.00    +0.167 C 
BRANCH 110 111
ATOM    111  NH2 ARG A  8        2.144   5.284   5.694  0.00  0.00    -0.297 NA
ATOM    112 HH21 ARG A  8        1.677   6.080   5.282  0.00  0.00    +0.121 HD
ATOM    113 HH22 ARG A  8        2.671   5.404   6.547  0.00  0.00    +0.121 HD
ENDBRANCH 110 111
BRANCH 110 114
ATOM    114  NH1 ARG A  8        2.683   3.038   5.689  0.00  0.00    -0.297 NA
ATOM    115 HH11 ARG A  8        2.615   2.120   5.274  0.00  0.00    +0.121 HD
ATOM    116 HH12 ARG A  8        3.212   3.165   6.540  0.00  0.00    +0.121 HD
ENDBRANCH 110 114
ENDBRANCH 108 110
ENDBRANCH 107 108
ENDBRANCH 106 107
ENDBRANCH 105 106
ENDBRANCH  41 105
BRANCH  16 117
ATOM    117  CB  TYR A  3        6.645   7.821  -4.410  0.00  0.00    +0.067 C 
BRANCH 117 118
ATOM    118  CG  TYR A  3        5.850   8.455  -5.540  0.00  0.00    -0.045 A 
ATOM    119  CD2 TYR A  3        6.522   9.133  -6.578  0.00  0.00    +0.007 A 
ATOM    120  CE2 TYR A  3        5.792   9.735  -7.621  0.00  0.00    +0.045 A 
ATOM    121  CZ  TYR A  3        4.385   9.662  -7.631  0.00  0.00    +0.117 A 
ATOM    122  CE1 TYR A  3        3.710   8.984  -6.597  0.00  0.00    +0.045 A 
ATOM    123  CD1 TYR A  3        4.442   8.385  -5.556  0.00  0.00    +0.007 A 
BRANCH 121 124
ATOM    124  OH  TYR A  3        3.675  10.247  -8.638  0.00  0.00    -0.507 OA
ATOM    125  HH  TYR A  3        4.230  10.690  -9.284  0.00  0.00    +0.292 HD
ENDBRANCH 121 124
ENDBRANCH 117 118
ENDBRANCH  16 117
BRANCH  26 126
ATOM    126  CB  LEU A  5       -0.297   9.712  -1.658  0.00  0.00    +0.034 C 
BRANCH 126 127
ATOM    127  CG  LEU A  5       -1.691   9.163  -1.264  0.00  0.00    -0.015 C 
ATOM    128  CD2 LEU A  5       -2.102   9.543   0.173  0.00  0.00    +0.007 C 
ATOM    129  CD1 LEU A  5       -2.758   9.591  -2.291  0.00  0.00    +0.007 C 
ENDBRANCH 126 127
ENDBRANCH  26 126
BRANCH  53 130
ATOM    130  CB  LYS A 10        0.795  -3.817  -3.258  0.00  0.00    +0.032 C 
BRANCH 130 131
ATOM    131  CG  LYS A 10        2.046  -4.685  -3.001  0.00  0.00    +0.000 C 
BRANCH 131 132
ATOM    132  CD  LYS A 10        3.336  -4.239  -3.725  0.00  0.00    -0.019 C 
BRANCH 132 133
ATOM    133  CE  LYS A 10        3.235  -4.115  -5.259  0.00  0.00    -0.086 C 
BRANCH 133 134
ATOM    134  NZ  LYS A 10        2.933  -5.401  -5.915  0.00  0.00    +0.378 N 
ATOM    135  HZ1 LYS A 10        3.656  -6.071  -5.694  0.00  0.00    -0.090 HD
ATOM    136  HZ2 LYS A 10        2.044  -5.746  -5.584  0.00  0.00    -0.090 HD
ATOM    137  HZ3 LYS A 10        2.891  -5.270  -6.916  0.00  0.00    -0.090 HD
ENDBRANCH 133 134
ENDBRANCH 132 133
ENDBRANCH 131 132
ENDBRANCH 130 131
ENDBRANCH  53 130
BRANCH  31 138
ATOM    138  CB  ARG A  6        2.243   4.988  -1.681  0.00  0.00    +0.033 C 
BRANCH 138 139
ATOM    139  CG  ARG A  6        3.244   5.431  -2.762  0.00  0.00    +0.017 C 
BRANCH 139 140
ATOM    140  CD  ARG A  6        2.894   4.901  -4.166  0.00  0.00    +0.084 C 
BRANCH 140 141
ATOM    141  NE  ARG A  6        4.001   5.096  -5.116  0.00  0.00    -0.283 NA
ATOM    142  HE  ARG A  6        4.775   5.642  -4.765  0.00  0.00    +0.125 HD
BRANCH 141 143
ATOM    143  CZ  ARG A  6        4.079   4.671  -6.391  0.00  0.00    +0.167 C 
BRANCH 143 144
ATOM    144  NH2 ARG A  6        5.180   4.960  -7.097  0.00  0.00    -0.297 NA
ATOM    145 HH21 ARG A  6        5.929   5.492  -6.679  0.00  0.00    +0.121 HD
ATOM    146 HH22 ARG A  6        5.261   4.657  -8.058  0.00  0.00    +0.121 HD
ENDBRANCH 143 144
BRANCH 143 147
ATOM    147  NH1 ARG A  6        3.095   3.973  -6.979  0.00  0.00    -0.297 NA
ATOM    148 HH11 ARG A  6        2.252   3.756  -6.466  0.00  0.00    +0.121 HD
ATOM    149 HH12 ARG A  6        3.185   3.677  -7.940  0.00  0.00    +0.121 HD
ENDBRANCH 143 147
ENDBRANCH 141 143
ENDBRANCH 140 141
ENDBRANCH 139 140
ENDBRANCH 138 139
ENDBRANCH  31 138
BRANCH  65 150
ATOM    150  CB  SER A 12        5.132  -0.326  -2.062  0.00  0.00    +0.187 C 
BRANCH 150 151
ATOM    151  OG  SER A 12        4.453  -1.106  -1.101  0.00  0.00    -0.393 OA
ATOM    152  H   SER A 12        3.830  -1.677  -1.557  0.00  0.00    +0.209 HD
ENDBRANCH 150 151
ENDBRANCH  65 150
BRANCH  70 153
ATOM    153  CB  HIS A 13        7.129   4.683  -1.512  0.00  0.00    +0.057 C 
BRANCH 153 154
ATOM    154  CG  HIS A 13        7.806   3.998  -0.344  0.00  0.00    +0.059 C 
ATOM    155  ND1 HIS A 13        9.067   4.373   0.092  0.00  0.00    -0.290 NA
ATOM    156  HD1 HIS A 13        9.682   5.047  -0.342  0.00  0.00    +0.124 HD
ATOM    157  CE1 HIS A 13        9.335   3.660   1.183  0.00  0.00    +0.155 C 
ATOM    158  NE2 HIS A 13        8.313   2.879   1.523  0.00  0.00    -0.293 NA
ATOM    159  HE2 HIS A 13        8.269   2.262   2.321  0.00  0.00    +0.124 HD
ATOM    160  CD2 HIS A 13        7.314   3.103   0.590  0.00  0.00    +0.096 C 
ENDBRANCH 153 154
ENDBRANCH  70 153
TORSDOF 41
