REMARK  Name = DB18516
REMARK                            x       y       z     vdW  Elec       q    Type
REMARK                         _______ _______ _______ _____ _____    ______ ____
ROOT
ATOM      1  CA  HIS A  1       -0.020   0.047  -0.034  0.00  0.00    +0.042 C 
ENDROOT
BRANCH   1   2
ATOM      2  N   HIS A  1       -0.404  -0.810  -1.254  0.00  0.00    +0.387 N 
ATOM      3  H1  HIS A  1       -0.134  -0.340  -2.107  0.00  0.00    -0.089 HD
ATOM      4  H2  HIS A  1        0.070  -1.700  -1.211  0.00  0.00    -0.089 HD
ATOM      5  H3  HIS A  1       -1.400  -0.975  -1.263  0.00  0.00    -0.089 HD
ENDBRANCH   1   2
BRANCH   1   6
ATOM      6  C   HIS A  1       -0.801   1.395  -0.091  0.00  0.00    +0.290 C 
ATOM      7  OXT HIS A  1       -0.733   2.118   0.928  0.00  0.00    -0.253 OA
BRANCH   6   8
ATOM      8  O   HIS A  1       -1.462   1.706  -1.110  0.00  0.00    -0.482 OA
ATOM      9  H   HIS A  1       -1.929   2.518  -1.136  0.00  0.00    +0.295 HD
ENDBRANCH   6   8
ENDBRANCH   1   6
BRANCH   1  10
ATOM     10  CB  HIS A  1        1.523   0.220  -0.034  0.00  0.00    +0.052 C 
BRANCH  10  11
ATOM     11  CG  HIS A  1        2.076   0.778   1.260  0.00  0.00    +0.058 A 
ATOM     12  ND1 HIS A  1        2.746   2.005   1.327  0.00  0.00    -0.241 NA
ATOM     13  CE1 HIS A  1        3.064   2.152   2.606  0.00  0.00    +0.196 A 
ATOM     14  NE2 HIS A  1        2.664   1.130   3.364  0.00  0.00    -0.351 N 
ATOM     15  HE2 HIS A  1        2.795   1.034   4.361  0.00  0.00    +0.166 HD
ATOM     16  CD2 HIS A  1        2.028   0.230   2.527  0.00  0.00    +0.107 A 
ENDBRANCH  10  11
ENDBRANCH   1  10
TORSDOF 5
