REMARK  Name = DB18145
REMARK                            x       y       z     vdW  Elec       q    Type
REMARK                         _______ _______ _______ _____ _____    ______ ____
ROOT
ATOM      1  C   LIG    1        0.063   0.056  -0.385  0.00  0.00    +0.159 C 
ENDROOT
BRANCH   1   3
ATOM      2  C   LIG    1       -1.369   0.190  -2.423  0.00  0.00    +0.246 C 
ATOM      3  N   LIG    1       -0.498  -0.462  -1.635  0.00  0.00    -0.302 N 
ATOM      4  H   LIG    1       -0.185  -1.383  -1.905  0.00  0.00    +0.150 HD
ATOM      5  O   LIG    1       -1.791   1.322  -2.188  0.00  0.00    -0.273 OA
BRANCH   2   7
ATOM      6  C   LIG    1       -3.270  -0.986  -3.668  0.00  0.00    +0.265 C 
ATOM      7  C   LIG    1       -1.831  -0.544  -3.682  0.00  0.00    +0.244 C 
ATOM      8  O   LIG    1       -2.196  -1.881  -3.482  0.00  0.00    -0.347 OA
BRANCH   6   9
ATOM      9  C   LIG    1       -4.059  -1.029  -4.981  0.00  0.00    +0.339 C 
ATOM     10  O   LIG    1       -5.238  -0.673  -5.014  0.00  0.00    -0.248 OA
BRANCH   9  11
ATOM     11  O   LIG    1       -3.348  -1.512  -6.025  0.00  0.00    -0.463 OA
BRANCH  11  13
ATOM     12  C   LIG    1       -2.914  -2.202  -8.294  0.00  0.00    +0.048 C 
ATOM     13  C   LIG    1       -3.938  -1.623  -7.314  0.00  0.00    +0.229 C 
ENDBRANCH  11  13
ENDBRANCH   9  11
ENDBRANCH   6   9
ENDBRANCH   2   7
ENDBRANCH   1   3
BRANCH   1  14
ATOM     14  C   LIG    1        1.591   0.149  -0.497  0.00  0.00    +0.233 C 
ATOM     15  N   LIG    1        2.167   1.134   0.212  0.00  0.00    -0.314 N 
ATOM     16  H   LIG    1        1.581   1.747   0.760  0.00  0.00    +0.149 HD
ATOM     17  O   LIG    1        2.212  -0.664  -1.184  0.00  0.00    -0.274 OA
BRANCH  15  18
ATOM     18  C   LIG    1        3.603   1.395   0.251  0.00  0.00    +0.104 C 
BRANCH  18  19
ATOM     19  C   LIG    1        4.141   2.087  -1.021  0.00  0.00    +0.022 C 
BRANCH  19  20
ATOM     20  C   LIG    1        5.660   2.380  -1.002  0.00  0.00    -0.016 C 
ATOM     21  C   LIG    1        6.147   2.853  -2.384  0.00  0.00    +0.007 C 
ATOM     22  C   LIG    1        6.063   3.391   0.091  0.00  0.00    +0.007 C 
ENDBRANCH  19  20
ENDBRANCH  18  19
ENDBRANCH  15  18
ENDBRANCH   1  14
BRANCH   1  23
ATOM     23  C   LIG    1       -0.332  -0.885   0.777  0.00  0.00    +0.034 C 
BRANCH  23  24
ATOM     24  C   LIG    1       -1.849  -0.951   1.077  0.00  0.00    -0.015 C 
ATOM     25  C   LIG    1       -2.157  -2.036   2.130  0.00  0.00    +0.007 C 
ATOM     26  C   LIG    1       -2.434   0.424   1.465  0.00  0.00    +0.007 C 
ENDBRANCH  23  24
ENDBRANCH   1  23
TORSDOF 11
