REMARK  Name = DB18087
REMARK                            x       y       z     vdW  Elec       q    Type
REMARK                         _______ _______ _______ _____ _____    ______ ____
ROOT
ATOM      1  C   LIG    1       -2.232  -1.131  -0.053  0.00  0.00    +0.123 A 
ATOM      2  N   LIG    1       -2.886   0.008  -0.419  0.00  0.00    -0.221 NA
ATOM      3  C   LIG    1       -2.113   1.053  -0.806  0.00  0.00    +0.223 A 
ATOM      4  N   LIG    1       -0.758   1.064  -0.863  0.00  0.00    -0.234 NA
ATOM      5  C   LIG    1       -0.117  -0.080  -0.497  0.00  0.00    +0.094 A 
ATOM      6  C   LIG    1       -0.835  -1.212  -0.081  0.00  0.00    +0.073 A 
ENDROOT
BRANCH   5   7
ATOM      7  C   LIG    1        1.387  -0.098  -0.542  0.00  0.00    +0.092 A 
ATOM      8  N   LIG    1        2.250   0.916  -0.944  0.00  0.00    -0.298 N 
ATOM      9  C   LIG    1        2.059   2.196  -1.411  0.00  0.00    +0.097 A 
ATOM     10  C   LIG    1        3.158   2.985  -1.736  0.00  0.00    +0.064 A 
ATOM     11  C   LIG    1        4.456   2.499  -1.596  0.00  0.00    +0.125 A 
ATOM     12  C   LIG    1        4.660   1.194  -1.119  0.00  0.00    +0.092 A 
ATOM     13  C   LIG    1        3.551   0.393  -0.790  0.00  0.00    +0.142 A 
ATOM     14  N   LIG    1        3.525  -0.876  -0.323  0.00  0.00    -0.235 NA
ATOM     15  C   LIG    1        2.248  -1.142  -0.187  0.00  0.00    +0.141 A 
BRANCH  11  16
ATOM     16  O   LIG    1        5.474   3.364  -1.950  0.00  0.00    -0.492 OA
BRANCH  16  17
ATOM     17  C   LIG    1        6.828   2.950  -1.801  0.00  0.00    +0.227 C 
BRANCH  17  18
ATOM     18  C   LIG    1        7.744   4.082  -2.282  0.00  0.00    +0.022 C 
BRANCH  18  19
ATOM     19  C   LIG    1        9.234   3.742  -2.114  0.00  0.00    -0.076 C 
BRANCH  19  20
ATOM     20  N   LIG    1       10.115   4.860  -2.710  0.00  0.00    +0.380 N 
ATOM     21  H   LIG    1        9.845   4.990  -3.676  0.00  0.00    -0.082 HD
ATOM     22  C   LIG    1       11.613   4.518  -2.692  0.00  0.00    -0.079 C 
ATOM     23  C   LIG    1       12.281   5.872  -2.903  0.00  0.00    -0.020 C 
ATOM     24  C   LIG    1       11.402   6.873  -2.155  0.00  0.00    -0.020 C 
ATOM     25  C   LIG    1       10.025   6.217  -1.982  0.00  0.00    -0.079 C 
ENDBRANCH  19  20
ENDBRANCH  18  19
ENDBRANCH  17  18
ENDBRANCH  16  17
ENDBRANCH  11  16
ENDBRANCH   5   7
BRANCH   1  26
ATOM     26  N   LIG    1       -2.954  -2.260   0.370  0.00  0.00    -0.325 N 
ATOM     27  H   LIG    1       -2.454  -3.125   0.514  0.00  0.00    +0.148 HD
BRANCH  26  28
ATOM     28  C   LIG    1       -4.415  -2.300   0.389  0.00  0.00    +0.138 C 
BRANCH  28  32
ATOM     29  C   LIG    1       -5.978  -0.193   3.822  0.00  0.00    -0.015 A 
ATOM     30  C   LIG    1       -5.294  -1.402   3.987  0.00  0.00    +0.009 A 
ATOM     31  C   LIG    1       -4.795  -2.084   2.881  0.00  0.00    +0.006 A 
ATOM     32  C   LIG    1       -4.977  -1.562   1.598  0.00  0.00    -0.030 A 
ATOM     33  C   LIG    1       -5.662  -0.358   1.427  0.00  0.00    +0.006 A 
ATOM     34  C   LIG    1       -6.160   0.323   2.534  0.00  0.00    +0.009 A 
BRANCH  29  39
ATOM     35  C   LIG    1       -7.017   1.419   8.502  0.00  0.00    +0.172 C 
ATOM     36  N   LIG    1       -6.963   1.234   7.063  0.00  0.00    -0.274 N 
ATOM     37  N   LIG    1       -7.660   2.053   6.269  0.00  0.00    -0.179 NA
ATOM     38  C   LIG    1       -7.390   1.635   5.053  0.00  0.00    +0.142 A 
ATOM     39  C   LIG    1       -6.507   0.540   5.013  0.00  0.00    +0.020 A 
ATOM     40  C   LIG    1       -6.244   0.307   6.357  0.00  0.00    +0.116 A 
ENDBRANCH  29  39
ENDBRANCH  28  32
ENDBRANCH  26  28
ENDBRANCH   1  26
TORSDOF 10
