REMARK  Name = DB18100
REMARK                            x       y       z     vdW  Elec       q    Type
REMARK                         _______ _______ _______ _____ _____    ______ ____
ROOT
ATOM      1  C   LIG    1       -0.724   1.015  -1.828  0.00  0.00    -0.027 C 
ATOM      2  C   LIG    1       -0.322  -0.148  -1.278  0.00  0.00    -0.027 C 
ENDROOT
BRANCH   1   3
ATOM      3  C   LIG    1       -0.301   2.423  -1.444  0.00  0.00    +0.053 C 
BRANCH   3   5
ATOM      4  C   LIG    1       -1.316   3.642   0.587  0.00  0.00    -0.031 C 
ATOM      5  C   LIG    1       -1.378   3.171  -0.674  0.00  0.00    -0.027 C 
BRANCH   4   6
ATOM      6  C   LIG    1       -0.137   3.575   1.546  0.00  0.00    +0.027 C 
BRANCH   6   7
ATOM      7  C   LIG    1       -0.189   2.398   2.536  0.00  0.00    +0.015 C 
BRANCH   7   8
ATOM      8  C   LIG    1       -1.382   2.455   3.511  0.00  0.00    +0.121 C 
BRANCH   8   9
ATOM      9  C   LIG    1       -1.415   1.264   4.471  0.00  0.00    +0.307 C 
ATOM     10  O   LIG    1       -1.197   1.408   5.676  0.00  0.00    -0.251 OA
BRANCH   9  11
ATOM     11  O   LIG    1       -1.698   0.102   3.844  0.00  0.00    -0.465 OA
BRANCH  11  13
ATOM     12  C   LIG    1       -2.125  -2.257   3.615  0.00  0.00    +0.048 C 
ATOM     13  C   LIG    1       -1.755  -1.118   4.570  0.00  0.00    +0.229 C 
ENDBRANCH  11  13
ENDBRANCH   9  11
ENDBRANCH   8   9
ENDBRANCH   7   8
ENDBRANCH   6   7
ENDBRANCH   4   6
ENDBRANCH   3   5
ENDBRANCH   1   3
BRANCH   2  14
ATOM     14  C   LIG    1        0.655  -0.346  -0.133  0.00  0.00    +0.054 C 
BRANCH  14  15
ATOM     15  C   LIG    1        1.807  -1.279  -0.469  0.00  0.00    -0.023 C 
ATOM     16  C   LIG    1        2.003  -2.534  -0.018  0.00  0.00    -0.004 C 
BRANCH  16  17
ATOM     17  C   LIG    1        1.111  -3.260   0.870  0.00  0.00    -0.002 C 
ATOM     18  C   LIG    1        1.414  -4.462   1.390  0.00  0.00    +0.004 C 
BRANCH  18  19
ATOM     19  C   LIG    1        0.511  -5.250   2.324  0.00  0.00    +0.141 C 
BRANCH  19  20
ATOM     20  O   LIG    1        0.361  -6.544   1.779  0.00  0.00    -0.387 OA
ATOM     21  H   LIG    1       -0.035  -6.463   0.908  0.00  0.00    +0.210 HD
ENDBRANCH  19  20
BRANCH  19  22
ATOM     22  C   LIG    1        1.064  -5.370   3.758  0.00  0.00    +0.062 C 
BRANCH  22  23
ATOM     23  C   LIG    1        1.122  -4.048   4.510  0.00  0.00    -0.028 C 
ATOM     24  C   LIG    1        2.214  -3.299   4.755  0.00  0.00    -0.031 C 
BRANCH  24  25
ATOM     25  C   LIG    1        3.638  -3.581   4.306  0.00  0.00    +0.023 C 
ATOM     26  C   LIG    1        4.571  -3.974   5.457  0.00  0.00    +0.008 C 
ENDBRANCH  24  25
ENDBRANCH  22  23
ENDBRANCH  19  22
ENDBRANCH  18  19
ENDBRANCH  16  17
ENDBRANCH  14  15
ENDBRANCH   2  14
TORSDOF 16
