REMARK  Name = DB18049
REMARK                            x       y       z     vdW  Elec       q    Type
REMARK                         _______ _______ _______ _____ _____    ______ ____
ROOT
ATOM      1  O   LIG    1        4.277  -2.499  -0.356  0.00  0.00    -0.464 OA
ENDROOT
BRANCH   1   2
ATOM      2  C   LIG    1        5.591  -2.710  -0.570  0.00  0.00    +0.321 C 
ATOM      3  O   LIG    1        6.439  -1.829  -0.749  0.00  0.00    -0.249 OA
BRANCH   2   4
ATOM      4  C   LIG    1        5.918  -4.216  -0.574  0.00  0.00    +0.208 C 
BRANCH   4   5
ATOM      5  N   LIG    1        7.356  -4.545  -0.787  0.00  0.00    -0.262 NA
ATOM      6  C   LIG    1        8.214  -4.436   0.416  0.00  0.00    +0.108 C 
BRANCH   5   7
ATOM      7  C   LIG    1        7.878  -4.809  -2.020  0.00  0.00    +0.170 C 
BRANCH   7   8
ATOM      8  N   LIG    1        9.171  -5.067  -2.219  0.00  0.00    -0.297 NA
ATOM      9  H   LIG    1        9.854  -4.769  -1.537  0.00  0.00    +0.121 HD
ATOM     10  H   LIG    1        9.466  -5.553  -3.054  0.00  0.00    +0.121 HD
ENDBRANCH   7   8
BRANCH   7  11
ATOM     11  N   LIG    1        7.144  -4.833  -3.133  0.00  0.00    -0.297 NA
ATOM     12  H   LIG    1        6.257  -4.352  -3.161  0.00  0.00    +0.121 HD
ATOM     13  H   LIG    1        7.480  -5.326  -3.948  0.00  0.00    +0.121 HD
ENDBRANCH   7  11
ENDBRANCH   5   7
ENDBRANCH   4   5
ENDBRANCH   2   4
ENDBRANCH   1   2
BRANCH   1  14
ATOM     14  C   LIG    1        3.753  -1.178  -0.306  0.00  0.00    +0.232 C 
BRANCH  14  15
ATOM     15  C   LIG    1        2.226  -1.233  -0.151  0.00  0.00    +0.041 C 
BRANCH  15  16
ATOM     16  C   LIG    1        1.590   0.167  -0.102  0.00  0.00    +0.003 C 
BRANCH  16  17
ATOM     17  C   LIG    1        0.055   0.129   0.009  0.00  0.00    +0.000 C 
BRANCH  17  18
ATOM     18  C   LIG    1       -0.577   1.533   0.021  0.00  0.00    +0.000 C 
BRANCH  18  19
ATOM     19  C   LIG    1       -2.115   1.503   0.072  0.00  0.00    +0.000 C 
BRANCH  19  20
ATOM     20  C   LIG    1       -2.739   2.909   0.081  0.00  0.00    -0.000 C 
BRANCH  20  21
ATOM     21  C   LIG    1       -4.279   2.886   0.083  0.00  0.00    -0.000 C 
BRANCH  21  22
ATOM     22  C   LIG    1       -4.896   4.298   0.103  0.00  0.00    -0.000 C 
BRANCH  22  23
ATOM     23  C   LIG    1       -6.437   4.319   0.160  0.00  0.00    -0.000 C 
BRANCH  23  25
ATOM     24  C   LIG    1       -8.655   3.906  -1.055  0.00  0.00    +0.004 C 
ATOM     25  C   LIG    1       -7.127   3.773  -1.105  0.00  0.00    -0.003 C 
ENDBRANCH  23  25
ENDBRANCH  22  23
ENDBRANCH  21  22
ENDBRANCH  20  21
ENDBRANCH  19  20
ENDBRANCH  18  19
ENDBRANCH  17  18
ENDBRANCH  16  17
ENDBRANCH  15  16
ENDBRANCH  14  15
ENDBRANCH   1  14
TORSDOF 17
