REMARK  Name = DB18081
REMARK                            x       y       z     vdW  Elec       q    Type
REMARK                         _______ _______ _______ _____ _____    ______ ____
ROOT
ATOM      1  C   LIG    1        2.198   0.430   0.772  0.00  0.00    +0.221 A 
ATOM      2  N   LIG    1        1.756   0.758   2.016  0.00  0.00    -0.211 NA
ATOM      3  C   LIG    1        2.684   0.966   2.994  0.00  0.00    +0.111 A 
ATOM      4  C   LIG    1        4.056   0.857   2.713  0.00  0.00    +0.167 A 
ATOM      5  F   LIG    1        5.008   1.091   3.646  0.00  0.00    -0.202 F 
ATOM      6  C   LIG    1        4.420   0.512   1.410  0.00  0.00    +0.155 A 
ATOM      7  N   LIG    1        3.505   0.291   0.431  0.00  0.00    -0.220 NA
ENDROOT
BRANCH   3   8
ATOM      8  C   LIG    1        2.143   1.319   4.341  0.00  0.00    +0.006 A 
ATOM      9  C   LIG    1        1.018   2.149   4.476  0.00  0.00    +0.050 A 
ATOM     10  C   LIG    1        0.507   2.473   5.735  0.00  0.00    +0.145 A 
ATOM     11  F   LIG    1       -0.580   3.276   5.822  0.00  0.00    -0.204 F 
ATOM     12  C   LIG    1        1.114   1.969   6.890  0.00  0.00    +0.071 A 
ATOM     13  N   LIG    1        0.742   2.180   8.181  0.00  0.00    -0.315 N 
ATOM     14  H   LIG    1       -0.020   2.733   8.469  0.00  0.00    +0.152 HD
ATOM     15  C   LIG    1        1.607   1.494   9.033  0.00  0.00    +0.012 C 
ATOM     16  C   LIG    1        2.651   0.768   8.154  0.00  0.00    +0.035 C 
ATOM     17  C   LIG    1        2.664  -0.772   8.383  0.00  0.00    +0.017 C 
ATOM     18  C   LIG    1        4.128  -1.190   8.543  0.00  0.00    +0.001 C 
ATOM     19  C   LIG    1        4.779   0.025   9.188  0.00  0.00    +0.001 C 
ATOM     20  C   LIG    1        4.109   1.203   8.479  0.00  0.00    +0.017 C 
ATOM     21  C   LIG    1        1.548   1.475  10.376  0.00  0.00    +0.029 C 
ATOM     22  C   LIG    1        2.217   1.155   6.764  0.00  0.00    -0.011 A 
ATOM     23  C   LIG    1        2.735   0.822   5.511  0.00  0.00    +0.016 A 
ENDBRANCH   3   8
BRANCH   1  24
ATOM     24  N   LIG    1        1.281   0.206  -0.269  0.00  0.00    -0.268 N 
ATOM     25  H   LIG    1        1.720  -0.073  -1.134  0.00  0.00    +0.156 HD
BRANCH  24  29
ATOM     26  C   LIG    1       -2.881   0.475  -0.561  0.00  0.00    -0.026 A 
ATOM     27  C   LIG    1       -2.188   0.847   0.597  0.00  0.00    +0.116 A 
ATOM     28  N   LIG    1       -0.840   0.763   0.712  0.00  0.00    -0.240 NA
ATOM     29  C   LIG    1       -0.121   0.296  -0.345  0.00  0.00    +0.125 A 
ATOM     30  C   LIG    1       -0.740  -0.094  -1.536  0.00  0.00    +0.044 A 
ATOM     31  C   LIG    1       -2.130  -0.004  -1.641  0.00  0.00    +0.009 A 
BRANCH  26  37
ATOM     32  C   LIG    1       -8.565   1.534   0.419  0.00  0.00    -0.096 C 
ATOM     33  N   LIG    1       -7.032   1.374   0.443  0.00  0.00    +0.378 N 
ATOM     34  H   LIG    1       -6.681   1.728   1.322  0.00  0.00    -0.082 HD
ATOM     35  C   LIG    1       -6.654  -0.120   0.337  0.00  0.00    -0.079 C 
ATOM     36  C   LIG    1       -5.123  -0.258   0.421  0.00  0.00    -0.011 C 
ATOM     37  C   LIG    1       -4.403   0.597  -0.648  0.00  0.00    +0.017 C 
ATOM     38  C   LIG    1       -4.865   2.072  -0.617  0.00  0.00    -0.011 C 
ATOM     39  C   LIG    1       -6.397   2.202  -0.697  0.00  0.00    -0.079 C 
ENDBRANCH  26  37
ENDBRANCH  24  29
ENDBRANCH   1  24
TORSDOF 4
