REMARK  Name = DB18518
REMARK                            x       y       z     vdW  Elec       q    Type
REMARK                         _______ _______ _______ _____ _____    ______ ____
ROOT
ATOM      1  N   LIG    1        1.492  -0.028   0.388  0.00  0.00    -0.291 N 
ENDROOT
BRANCH   1   6
ATOM      2  C   LIG    1       -1.965  -0.768   0.421  0.00  0.00    +0.085 A 
ATOM      3  C   LIG    1       -2.230   0.342   1.238  0.00  0.00    +0.016 A 
ATOM      4  C   LIG    1       -3.527   0.862   1.817  0.00  0.00    +0.054 C 
ATOM      5  S   LIG    1       -0.711   1.137   1.556  0.00  0.00    -0.057 S 
ATOM      6  C   LIG    1        0.114  -0.051   0.593  0.00  0.00    +0.163 A 
ATOM      7  N   LIG    1       -0.698  -0.948   0.095  0.00  0.00    -0.224 NA
BRANCH   2  12
ATOM      8  C   LIG    1       -4.970  -3.421  -1.187  0.00  0.00    +0.124 A 
ATOM      9  C   LIG    1       -5.043  -2.033  -1.372  0.00  0.00    -0.008 A 
ATOM     10  C   LIG    1       -6.194  -1.418  -2.154  0.00  0.00    +0.047 C 
ATOM     11  C   LIG    1       -4.057  -1.200  -0.836  0.00  0.00    +0.018 A 
ATOM     12  C   LIG    1       -2.983  -1.726  -0.111  0.00  0.00    +0.020 A 
ATOM     13  C   LIG    1       -2.909  -3.115   0.080  0.00  0.00    +0.054 A 
ATOM     14 CL   LIG    1       -1.630  -3.844   0.993  0.00  0.00    -0.083 Cl
ATOM     15  C   LIG    1       -3.892  -3.947  -0.456  0.00  0.00    +0.066 A 
BRANCH   8  17
ATOM     16  C   LIG    1       -5.942  -5.609  -1.574  0.00  0.00    +0.277 C 
ATOM     17  O   LIG    1       -5.975  -4.196  -1.741  0.00  0.00    -0.495 OA
ENDBRANCH   8  17
ENDBRANCH   2  12
ENDBRANCH   1   6
BRANCH   1  18
ATOM     18  C   LIG    1        2.141  -0.930  -0.592  0.00  0.00    +0.107 C 
BRANCH  18  19
ATOM     19  C   LIG    1        3.333  -1.671   0.038  0.00  0.00    -0.024 A 
ATOM     20  C   LIG    1        3.091  -2.583   1.073  0.00  0.00    +0.044 A 
ATOM     21  C   LIG    1        4.143  -3.266   1.684  0.00  0.00    +0.127 A 
ATOM     22  F   LIG    1        3.880  -4.136   2.687  0.00  0.00    -0.205 F 
ATOM     23  C   LIG    1        5.458  -3.049   1.262  0.00  0.00    -0.015 A 
ATOM     24  C   LIG    1        6.607  -3.788   1.927  0.00  0.00    +0.047 C 
ATOM     25  C   LIG    1        5.708  -2.146   0.225  0.00  0.00    +0.006 A 
ATOM     26  C   LIG    1        4.654  -1.463  -0.383  0.00  0.00    +0.006 A 
ENDBRANCH  18  19
BRANCH  18  27
ATOM     27  C   LIG    1        2.407  -0.262  -1.970  0.00  0.00    +0.031 C 
BRANCH  27  28
ATOM     28  C   LIG    1        1.137   0.293  -2.645  0.00  0.00    -0.009 C 
ATOM     29  C   LIG    1        0.973   0.204  -4.138  0.00  0.00    +0.004 C 
ATOM     30  C   LIG    1        0.094  -0.631  -3.214  0.00  0.00    +0.004 C 
ENDBRANCH  27  28
ENDBRANCH  18  27
ENDBRANCH   1  18
BRANCH   1  31
ATOM     31  C   LIG    1        2.370   1.033   0.914  0.00  0.00    +0.196 C 
BRANCH  31  32
ATOM     32  C   LIG    1        2.773   0.813   2.317  0.00  0.00    -0.086 C 
ATOM     33  C   LIG    1        3.116   0.611   3.471  0.00  0.00    +0.005 C 
ENDBRANCH  31  32
ENDBRANCH   1  31
TORSDOF 9
