REMARK  Name = DB18118
REMARK                            x       y       z     vdW  Elec       q    Type
REMARK                         _______ _______ _______ _____ _____    ______ ____
ROOT
ATOM      1  C   LIG    1       -0.015  -0.011   0.000  0.00  0.00    +0.106 C 
ATOM      2  N   LIG    1        1.442   0.004   0.000  0.00  0.00    -0.288 NA
ATOM      3  C   LIG    1        2.245   1.136   0.000  0.00  0.00    +0.067 C 
ATOM      4  C   LIG    1        1.940   2.506   0.000  0.00  0.00    +0.096 C 
ATOM      5  N   LIG    1        2.973   3.371   0.000  0.00  0.00    -0.306 NA
ATOM      6  H   LIG    1        2.760   4.358   0.000  0.00  0.00    +0.123 HD
ATOM      7  C   LIG    1        4.270   3.010   0.000  0.00  0.00    +0.075 C 
ATOM      8  C   LIG    1        4.629   1.661   0.000  0.00  0.00    +0.022 C 
ATOM      9  C   LIG    1        3.600   0.701   0.000  0.00  0.00    +0.014 C 
ATOM     10  C   LIG    1        3.596  -0.703   0.000  0.00  0.00    +0.014 C 
ATOM     11  C   LIG    1        4.625  -1.660   0.000  0.00  0.00    +0.046 C 
ATOM     12  C   LIG    1        4.285  -3.011   0.000  0.00  0.00    +0.153 C 
ATOM     13  C   LIG    1        2.952  -3.414   0.000  0.00  0.00    +0.041 C 
ATOM     14  C   LIG    1        1.903  -2.493   0.000  0.00  0.00    +0.024 C 
ATOM     15  F   LIG    1        5.263  -3.944   0.000  0.00  0.00    -0.238 F 
ATOM     16  C   LIG    1        2.241  -1.132   0.000  0.00  0.00    +0.052 C 
ENDROOT
TORSDOF 0
