REMARK  Name = DB18445
REMARK                            x       y       z     vdW  Elec       q    Type
REMARK                         _______ _______ _______ _____ _____    ______ ____
ROOT
ATOM      1  C   LIG    1        1.435  -0.001   0.031  0.00  0.00    +0.136 A 
ATOM      2  C   LIG    1        2.064  -1.258  -0.143  0.00  0.00    +0.094 A 
ATOM      3  C   LIG    1        3.466  -1.239  -0.235  0.00  0.00    +0.131 A 
ATOM      4  N   LIG    1        4.199  -0.101  -0.165  0.00  0.00    -0.222 NA
ATOM      5  C   LIG    1        3.517   1.060   0.001  0.00  0.00    +0.217 A 
ATOM      6  N   LIG    1        2.169   1.147   0.102  0.00  0.00    -0.199 NA
ENDROOT
BRANCH   2   7
ATOM      7  C   LIG    1        1.311  -2.569  -0.244  0.00  0.00    +0.246 C 
ATOM      8  O   LIG    1        0.194  -2.640  -0.754  0.00  0.00    -0.270 OA
ATOM      9  N   LIG    1        1.915  -3.648   0.267  0.00  0.00    -0.325 N 
ATOM     10  H   LIG    1        1.456  -4.547   0.235  0.00  0.00    +0.145 HD
ATOM     11  H   LIG    1        2.824  -3.570   0.698  0.00  0.00    +0.145 HD
ENDBRANCH   2   7
BRANCH   1  12
ATOM     12  N   LIG    1        0.034   0.103   0.168  0.00  0.00    -0.325 N 
ATOM     13  H   LIG    1       -0.497  -0.724  -0.066  0.00  0.00    +0.148 HD
BRANCH  12  18
ATOM     14  C   LIG    1       -4.158   3.969  -0.896  0.00  0.00    +0.010 C 
ATOM     15  C   LIG    1       -3.166   2.799  -0.735  0.00  0.00    +0.015 C 
ATOM     16  C   LIG    1       -1.815   3.033  -1.467  0.00  0.00    +0.119 C 
ATOM     17  C   LIG    1       -0.912   1.783  -1.357  0.00  0.00    +0.053 C 
ATOM     18  C   LIG    1       -0.682   1.379   0.123  0.00  0.00    +0.074 C 
ATOM     19  C   LIG    1       -2.009   1.226   0.901  0.00  0.00    +0.022 C 
ATOM     20  C   LIG    1       -2.887   2.485   0.752  0.00  0.00    +0.007 C 
BRANCH  16  21
ATOM     21  O   LIG    1       -1.976   3.421  -2.818  0.00  0.00    -0.391 OA
ATOM     22  H   LIG    1       -1.719   2.685  -3.379  0.00  0.00    +0.210 HD
ENDBRANCH  16  21
ENDBRANCH  12  18
ENDBRANCH   1  12
BRANCH   5  23
ATOM     23  N   LIG    1        4.194   2.289   0.082  0.00  0.00    -0.309 N 
ATOM     24  H   LIG    1        3.624   3.113   0.205  0.00  0.00    +0.149 HD
BRANCH  23  25
ATOM     25  C   LIG    1        5.645   2.509   0.005  0.00  0.00    +0.026 C 
ATOM     26  C   LIG    1        6.391   1.797   1.160  0.00  0.00    +0.031 C 
ATOM     27  C   LIG    1        6.223   2.043  -1.354  0.00  0.00    +0.031 C 
ATOM     28  C   LIG    1        5.902   4.027   0.137  0.00  0.00    +0.031 C 
ENDBRANCH  23  25
ENDBRANCH   5  23
TORSDOF 6
