REMARK  Name = DB18111
REMARK                            x       y       z     vdW  Elec       q    Type
REMARK                         _______ _______ _______ _____ _____    ______ ____
ROOT
ATOM      1  C   LIG    1       -1.908  -1.421   0.830  0.00  0.00    +0.001 C 
ATOM      2  C   LIG    1       -2.695  -2.341   1.821  0.00  0.00    +0.025 C 
ATOM      3  C   LIG    1       -4.128  -2.709   1.314  0.00  0.00    +0.118 C 
ATOM      4  C   LIG    1       -4.979  -3.450   2.374  0.00  0.00    +0.035 C 
ATOM      5  C   LIG    1       -5.014  -2.736   3.750  0.00  0.00    +0.000 C 
ATOM      6  C   LIG    1       -3.566  -2.465   4.288  0.00  0.00    -0.026 C 
ATOM      7  C   LIG    1       -2.858  -3.824   4.578  0.00  0.00    +0.012 C 
ATOM      8  C   LIG    1       -3.715  -1.757   5.671  0.00  0.00    +0.010 C 
ATOM      9  C   LIG    1       -4.499  -0.434   5.612  0.00  0.00    +0.032 C 
ATOM     10  C   LIG    1       -5.912  -0.657   5.034  0.00  0.00    +0.115 C 
ATOM     11  C   LIG    1       -5.890  -1.448   3.708  0.00  0.00    +0.035 C 
ATOM     12  C   LIG    1       -2.777  -1.618   3.215  0.00  0.00    +0.001 C 
ATOM     13  C   LIG    1       -1.381  -1.124   3.704  0.00  0.00    +0.005 C 
ATOM     14  C   LIG    1       -0.632  -0.300   2.633  0.00  0.00    +0.007 C 
ATOM     15  C   LIG    1       -0.464  -1.093   1.306  0.00  0.00    -0.026 C 
ATOM     16  C   LIG    1        0.425  -2.362   1.506  0.00  0.00    +0.012 C 
ATOM     17  C   LIG    1        0.041  -0.248   0.086  0.00  0.00    -0.002 C 
ATOM     18  C   LIG    1       -0.576  -0.977  -1.141  0.00  0.00    +0.004 C 
ATOM     19  C   LIG    1       -1.747  -1.831  -0.636  0.00  0.00    +0.005 C 
ENDROOT
BRANCH  10  20
ATOM     20  O   LIG    1       -6.586   0.574   4.874  0.00  0.00    -0.392 OA
ATOM     21  H   LIG    1       -6.102   1.105   4.237  0.00  0.00    +0.210 HD
ENDBRANCH  10  20
BRANCH   3  22
ATOM     22  O   LIG    1       -4.112  -3.478   0.128  0.00  0.00    -0.391 OA
ATOM     23  H   LIG    1       -3.639  -2.984  -0.547  0.00  0.00    +0.210 HD
ENDBRANCH   3  22
BRANCH  17  24
ATOM     24  C   LIG    1        1.578   0.022  -0.075  0.00  0.00    -0.010 C 
ATOM     25  C   LIG    1        2.222   0.665   1.174  0.00  0.00    +0.008 C 
BRANCH  24  26
ATOM     26  C   LIG    1        1.869   0.882  -1.340  0.00  0.00    +0.014 C 
BRANCH  26  27
ATOM     27  C   LIG    1        3.373   1.021  -1.711  0.00  0.00    +0.121 C 
BRANCH  27  28
ATOM     28  C   LIG    1        3.647   1.556  -3.138  0.00  0.00    +0.305 C 
ATOM     29  O   LIG    1        4.796   1.359  -3.593  0.00  0.00    -0.251 OA
BRANCH  28  30
ATOM     30  O   LIG    1        2.748   2.177  -3.754  0.00  0.00    -0.481 OA
ATOM     31  H   LIG    1        2.911   2.502  -4.618  0.00  0.00    +0.295 HD
ENDBRANCH  28  30
ENDBRANCH  27  28
ENDBRANCH  26  27
ENDBRANCH  24  26
ENDBRANCH  17  24
TORSDOF 7
