REMARK  Name = DB18022
REMARK                            x       y       z     vdW  Elec       q    Type
REMARK                         _______ _______ _______ _____ _____    ______ ____
ROOT
ATOM      1  N   LIG    1        0.874  -1.073   0.923  0.00  0.00    -0.292 N 
ATOM      2  H   LIG    1        0.918  -0.610   1.819  0.00  0.00    +0.151 HD
ATOM      3  C   LIG    1        1.791  -2.022   0.668  0.00  0.00    +0.305 C 
ATOM      4  N   LIG    1        2.898  -1.840   1.417  0.00  0.00    -0.262 N 
ATOM      5  H   LIG    1        2.819  -1.203   2.196  0.00  0.00    +0.157 HD
ATOM      6  O   LIG    1        1.644  -2.909  -0.177  0.00  0.00    -0.252 OA
ENDROOT
BRANCH   4   7
ATOM      7  C   LIG    1        4.088  -2.523   1.336  0.00  0.00    +0.143 A 
ATOM      8  C   LIG    1        4.745  -2.773   0.163  0.00  0.00    +0.219 A 
ATOM      9  N   LIG    1        5.995  -3.398   0.105  0.00  0.00    -0.313 N 
ATOM     10  C   LIG    1        6.468  -3.951   1.285  0.00  0.00    +0.096 A 
ATOM     11  C   LIG    1        5.915  -3.729   2.502  0.00  0.00    +0.014 A 
ATOM     12  C   LIG    1        6.467  -4.334   3.786  0.00  0.00    +0.049 C 
ATOM     13  C   LIG    1        4.691  -2.893   2.651  0.00  0.00    +0.209 A 
ATOM     14  O   LIG    1        4.217  -2.575   3.744  0.00  0.00    -0.285 OA
BRANCH   8  15
ATOM     15  O   LIG    1        4.308  -2.460  -1.092  0.00  0.00    -0.492 OA
ATOM     16  H   LIG    1        3.390  -2.178  -1.045  0.00  0.00    +0.294 HD
ENDBRANCH   8  15
BRANCH   9  17
ATOM     17  C   LIG    1        7.025  -2.964  -0.856  0.00  0.00    +0.161 C 
BRANCH  17  18
ATOM     18  C   LIG    1        7.645  -1.615  -0.483  0.00  0.00    -0.009 A 
ATOM     19  C   LIG    1        8.797  -1.512   0.319  0.00  0.00    +0.046 A 
ATOM     20 CL   LIG    1        9.624  -2.907   0.920  0.00  0.00    -0.083 Cl
ATOM     21  C   LIG    1        9.313  -0.253   0.637  0.00  0.00    +0.020 A 
ATOM     22  C   LIG    1        8.702   0.903   0.156  0.00  0.00    +0.001 A 
ATOM     23  C   LIG    1        7.571   0.807  -0.652  0.00  0.00    +0.000 A 
ATOM     24  C   LIG    1        7.050  -0.446  -0.973  0.00  0.00    +0.007 A 
ENDBRANCH  17  18
ENDBRANCH   9  17
ENDBRANCH   4   7
BRANCH   1  25
ATOM     25  C   LIG    1       -0.349  -0.819   0.140  0.00  0.00    +0.115 C 
BRANCH  25  30
ATOM     26  C   LIG    1        0.648  -0.006  -5.564  0.00  0.00    +0.044 C 
ATOM     27  C   LIG    1        0.383  -0.213  -4.084  0.00  0.00    -0.050 A 
ATOM     28  C   LIG    1        1.193   0.423  -3.143  0.00  0.00    +0.004 A 
ATOM     29  C   LIG    1        0.955   0.238  -1.784  0.00  0.00    +0.006 A 
ATOM     30  C   LIG    1       -0.096  -0.583  -1.358  0.00  0.00    -0.027 A 
ATOM     31  C   LIG    1       -0.908  -1.213  -2.306  0.00  0.00    +0.006 A 
ATOM     32  C   LIG    1       -0.670  -1.029  -3.665  0.00  0.00    +0.004 A 
ENDBRANCH  25  30
BRANCH  25  33
ATOM     33  C   LIG    1       -1.200   0.349   0.724  0.00  0.00    +0.147 C 
BRANCH  33  34
ATOM     34  C   LIG    1       -1.547   0.237   2.230  0.00  0.00    +0.307 C 
ATOM     35  O   LIG    1       -1.574   1.302   2.886  0.00  0.00    -0.251 OA
BRANCH  34  36
ATOM     36  O   LIG    1       -1.818  -0.890   2.705  0.00  0.00    -0.481 OA
ATOM     37  H   LIG    1       -2.030  -0.977   3.613  0.00  0.00    +0.295 HD
ENDBRANCH  34  36
ENDBRANCH  33  34
ENDBRANCH  25  33
ENDBRANCH   1  25
TORSDOF 9
