REMARK  Name = DB18098
REMARK                            x       y       z     vdW  Elec       q    Type
REMARK                         _______ _______ _______ _____ _____    ______ ____
ROOT
ATOM      1  O   LIG    1       -0.903  -0.434   1.735  0.00  0.00    -0.158 OA
ATOM      2  S   LIG    1        0.376  -0.299   1.031  0.00  0.00    +0.033 S 
ATOM      3  N   LIG    1        0.449   1.264   0.227  0.00  0.00    -0.170 NA
ATOM      4  H   LIG    1        0.574   2.047   0.874  0.00  0.00    +0.150 HD
ATOM      5  C   LIG    1       -0.644   1.487  -0.740  0.00  0.00    +0.265 C 
ATOM      6  O   LIG    1       -0.538   0.560  -1.818  0.00  0.00    -0.362 OA
ATOM      7  C   LIG    1       -0.767  -0.804  -1.470  0.00  0.00    +0.186 C 
ATOM      8  C   LIG    1        0.345  -1.334  -0.549  0.00  0.00    +0.213 C 
ATOM      9  O   LIG    1        1.621  -0.534   1.769  0.00  0.00    -0.158 OA
ENDROOT
TORSDOF 0
