REMARK  Name = DB18302
REMARK                            x       y       z     vdW  Elec       q    Type
REMARK                         _______ _______ _______ _____ _____    ______ ____
ROOT
ATOM      1  C   LIG    1       -0.991   1.076  -0.052  0.00  0.00    +0.152 A 
ATOM      2  C   LIG    1       -0.246  -0.082  -0.329  0.00  0.00    +0.155 A 
ATOM      3  C   LIG    1       -0.897  -1.314  -0.449  0.00  0.00    +0.049 A 
ATOM      4  C   LIG    1       -2.278  -1.403  -0.284  0.00  0.00    +0.022 A 
ATOM      5  C   LIG    1       -3.022  -0.256  -0.000  0.00  0.00    +0.054 A 
ATOM      6  C   LIG    1       -2.379   0.980   0.114  0.00  0.00    +0.051 A 
ENDROOT
BRANCH   1   7
ATOM      7  S   LIG    1       -0.174   2.672   0.124  0.00  0.00    +0.079 S 
ATOM      8  O   LIG    1        0.745   2.739  -1.020  0.00  0.00    -0.150 OA
ATOM      9  O   LIG    1       -1.254   3.664   0.179  0.00  0.00    -0.150 OA
BRANCH   7  13
ATOM     10  N   LIG    1        2.080   2.793   3.093  0.00  0.00    -0.293 N 
ATOM     11  H   LIG    1        1.441   2.619   3.854  0.00  0.00    +0.151 HD
ATOM     12  C   LIG    1        1.513   3.160   1.929  0.00  0.00    +0.319 C 
ATOM     13  N   LIG    1        0.514   2.423   1.517  0.00  0.00    -0.169 N 
ATOM     14  H   LIG    1        0.186   1.694   2.091  0.00  0.00    +0.178 HD
ATOM     15  O   LIG    1        2.007   4.094   1.291  0.00  0.00    -0.251 OA
BRANCH  10  17
ATOM     16  C   LIG    1        3.645   2.148   4.839  0.00  0.00    +0.031 C 
ATOM     17  C   LIG    1        3.488   2.921   3.512  0.00  0.00    +0.028 C 
ATOM     18  C   LIG    1        4.447   2.292   2.471  0.00  0.00    +0.031 C 
ATOM     19  C   LIG    1        3.874   4.401   3.757  0.00  0.00    +0.031 C 
ENDBRANCH  10  17
ENDBRANCH   7  13
ENDBRANCH   1   7
BRANCH   5  20
ATOM     20  C   LIG    1       -4.464  -0.346   0.177  0.00  0.00    +0.099 C 
ATOM     21  N   LIG    1       -5.610  -0.419   0.318  0.00  0.00    -0.191 NA
ENDBRANCH   5  20
BRANCH   2  22
ATOM     22  O   LIG    1        1.119  -0.014  -0.499  0.00  0.00    -0.454 OA
BRANCH  22  23
ATOM     23  C   LIG    1        1.977  -0.601   0.409  0.00  0.00    +0.129 A 
ATOM     24  C   LIG    1        1.628  -0.867   1.743  0.00  0.00    +0.054 A 
ATOM     25  C   LIG    1        2.538  -1.448   2.641  0.00  0.00    -0.014 A 
ATOM     26  C   LIG    1        3.823  -1.750   2.166  0.00  0.00    +0.009 A 
ATOM     27  C   LIG    1        4.188  -1.476   0.849  0.00  0.00    +0.004 A 
ATOM     28  C   LIG    1        3.268  -0.900  -0.023  0.00  0.00    +0.046 A 
BRANCH  25  29
ATOM     29  C   LIG    1        2.150  -1.730   4.059  0.00  0.00    -0.018 A 
ATOM     30  C   LIG    1        0.825  -2.044   4.393  0.00  0.00    +0.012 A 
ATOM     31  C   LIG    1        0.460  -2.302   5.711  0.00  0.00    +0.046 A 
ATOM     32  C   LIG    1        1.417  -2.245   6.732  0.00  0.00    +0.127 A 
ATOM     33  C   LIG    1        2.738  -1.944   6.407  0.00  0.00    +0.046 A 
ATOM     34  C   LIG    1        3.100  -1.689   5.087  0.00  0.00    +0.012 A 
BRANCH  32  35
ATOM     35  O   LIG    1        1.144  -2.495   8.063  0.00  0.00    -0.434 OA
BRANCH  35  36
ATOM     36  C   LIG    1       -0.201  -2.393   8.525  0.00  0.00    +0.541 C 
ATOM     37  F   LIG    1       -0.877  -3.515   8.277  0.00  0.00    -0.166 F 
ATOM     38  F   LIG    1       -0.190  -2.176   9.839  0.00  0.00    -0.166 F 
ENDBRANCH  35  36
ENDBRANCH  32  35
ENDBRANCH  25  29
ENDBRANCH  22  23
ENDBRANCH   2  22
TORSDOF 9
