REMARK  Name = DB18715
REMARK                            x       y       z     vdW  Elec       q    Type
REMARK                         _______ _______ _______ _____ _____    ______ ____
ROOT
ATOM      1  C   LIG    1       -0.468   2.371  -0.697  0.00  0.00    +0.142 A 
ATOM      2  C   LIG    1       -0.694   1.003  -0.472  0.00  0.00    +0.114 A 
ATOM      3  N   LIG    1        0.129  -0.095  -0.269  0.00  0.00    -0.257 N 
ATOM      4  C   LIG    1       -0.606  -1.228  -0.103  0.00  0.00    +0.335 A 
ATOM      5  O   LIG    1       -0.184  -2.370   0.097  0.00  0.00    -0.246 OA
ATOM      6  N   LIG    1       -1.904  -0.828  -0.203  0.00  0.00    -0.287 N 
ATOM      7  C   LIG    1       -1.980   0.533  -0.426  0.00  0.00    +0.075 A 
ATOM      8  C   LIG    1       -3.065   1.397  -0.597  0.00  0.00    +0.048 A 
ATOM      9  C   LIG    1       -2.775   2.747  -0.816  0.00  0.00    +0.115 A 
ATOM     10  N   LIG    1       -1.505   3.235  -0.867  0.00  0.00    -0.238 NA
ENDROOT
BRANCH   6  11
ATOM     11  C   LIG    1       -3.044  -1.750  -0.073  0.00  0.00    +0.110 C 
ATOM     12  C   LIG    1       -3.114  -2.868  -1.149  0.00  0.00    +0.133 C 
ATOM     13  N   LIG    1       -4.396  -3.571  -0.970  0.00  0.00    -0.296 N 
ATOM     14  C   LIG    1       -5.554  -3.290  -1.640  0.00  0.00    +0.239 C 
ATOM     15  O   LIG    1       -6.619  -3.845  -1.351  0.00  0.00    -0.271 OA
ATOM     16  C   LIG    1       -4.438  -4.342   0.285  0.00  0.00    +0.108 C 
ATOM     17  C   LIG    1       -4.462  -3.305   1.432  0.00  0.00    +0.021 C 
ATOM     18  C   LIG    1       -3.283  -2.305   1.360  0.00  0.00    +0.028 C 
BRANCH  14  19
ATOM     19  C   LIG    1       -5.500  -2.316  -2.718  0.00  0.00    +0.060 C 
ATOM     20  C   LIG    1       -6.477  -2.195  -3.636  0.00  0.00    +0.013 C 
ENDBRANCH  14  19
ENDBRANCH   6  11
BRANCH   3  21
ATOM     21  C   LIG    1        1.527  -0.047  -0.230  0.00  0.00    +0.052 A 
ATOM     22  C   LIG    1        2.173   0.264   0.969  0.00  0.00    +0.030 A 
ATOM     23  C   LIG    1        3.562   0.354   0.995  0.00  0.00    +0.048 A 
ATOM     24  C   LIG    1        4.296   0.138  -0.174  0.00  0.00    +0.129 A 
ATOM     25  C   LIG    1        3.648  -0.191  -1.365  0.00  0.00    +0.048 A 
ATOM     26  C   LIG    1        2.259  -0.280  -1.397  0.00  0.00    +0.030 A 
BRANCH  24  27
ATOM     27  O   LIG    1        5.667   0.239  -0.161  0.00  0.00    -0.456 OA
BRANCH  27  28
ATOM     28  C   LIG    1        6.286   1.471  -0.065  0.00  0.00    +0.128 A 
ATOM     29  C   LIG    1        5.625   2.692  -0.277  0.00  0.00    +0.046 A 
ATOM     30  C   LIG    1        6.322   3.893  -0.176  0.00  0.00    +0.004 A 
ATOM     31  C   LIG    1        7.680   3.879   0.131  0.00  0.00    +0.000 A 
ATOM     32  C   LIG    1        8.347   2.674   0.336  0.00  0.00    +0.004 A 
ATOM     33  C   LIG    1        7.649   1.473   0.235  0.00  0.00    +0.046 A 
ENDBRANCH  27  28
ENDBRANCH  24  27
ENDBRANCH   3  21
BRANCH   1  34
ATOM     34  N   LIG    1        0.811   2.923  -0.760  0.00  0.00    -0.341 N 
ATOM     35  H   LIG    1        0.913   3.915  -0.920  0.00  0.00    +0.144 HD
ATOM     36  H   LIG    1        1.616   2.325  -0.640  0.00  0.00    +0.144 HD
ENDBRANCH   1  34
TORSDOF 6
