REMARK  Name = DB18300
REMARK                            x       y       z     vdW  Elec       q    Type
REMARK                         _______ _______ _______ _____ _____    ______ ____
ROOT
ATOM      1  C   LIG    1        1.593  -0.025  -0.021  0.00  0.00    +0.059 A 
ATOM      2  N   LIG    1        2.217  -1.101   0.596  0.00  0.00    -0.327 N 
ATOM      3  C   LIG    1        1.555  -2.225   1.254  0.00  0.00    +0.151 C 
ATOM      4  C   LIG    1        3.587  -0.984   0.425  0.00  0.00    +0.147 A 
ATOM      5  N   LIG    1        4.528  -1.841   0.848  0.00  0.00    -0.218 NA
ATOM      6  C   LIG    1        5.794  -1.450   0.546  0.00  0.00    +0.225 A 
ATOM      7  N   LIG    1        6.180  -0.329  -0.113  0.00  0.00    -0.220 NA
ATOM      8  C   LIG    1        5.198   0.511  -0.527  0.00  0.00    +0.129 A 
ATOM      9  C   LIG    1        3.839   0.227  -0.277  0.00  0.00    +0.067 A 
ATOM     10  C   LIG    1        2.564   0.829  -0.548  0.00  0.00    +0.020 A 
ENDROOT
BRANCH  10  11
ATOM     11  C   LIG    1        2.298   2.100  -1.272  0.00  0.00    -0.012 A 
ATOM     12  C   LIG    1        2.728   3.322  -0.746  0.00  0.00    +0.050 A 
ATOM     13  C   LIG    1        2.370   4.519  -1.369  0.00  0.00    +0.166 A 
ATOM     14  F   LIG    1        2.763   5.697  -0.832  0.00  0.00    -0.202 F 
ATOM     15  C   LIG    1        1.584   4.499  -2.525  0.00  0.00    +0.167 A 
ATOM     16  C   LIG    1        1.193   3.275  -3.076  0.00  0.00    +0.050 A 
ATOM     17  C   LIG    1        1.544   2.082  -2.449  0.00  0.00    +0.012 A 
BRANCH  15  18
ATOM     18  O   LIG    1        1.163   5.680  -3.096  0.00  0.00    -0.421 OA
BRANCH  18  19
ATOM     19  C   LIG    1       -0.138   6.125  -2.929  0.00  0.00    +0.324 A 
ATOM     20  N   LIG    1       -1.012   5.402  -2.166  0.00  0.00    -0.200 NA
ATOM     21  C   LIG    1       -2.272   5.899  -2.054  0.00  0.00    +0.045 A 
ATOM     22  C   LIG    1       -3.234   5.080  -1.213  0.00  0.00    +0.066 C 
ATOM     23  C   LIG    1       -2.665   7.088  -2.676  0.00  0.00    +0.043 A 
ATOM     24  C   LIG    1       -1.696   7.754  -3.430  0.00  0.00    +0.118 A 
ATOM     25  N   LIG    1       -0.426   7.288  -3.569  0.00  0.00    -0.203 NA
ENDBRANCH  18  19
ENDBRANCH  15  18
ENDBRANCH  10  11
BRANCH   1  29
ATOM     26  C   LIG    1       -2.646   0.617  -0.265  0.00  0.00    +0.034 A 
ATOM     27  C   LIG    1       -1.808   1.594   0.295  0.00  0.00    +0.024 A 
ATOM     28  C   LIG    1       -0.439   1.364   0.392  0.00  0.00    +0.012 A 
ATOM     29  C   LIG    1        0.110   0.166  -0.071  0.00  0.00    -0.001 A 
ATOM     30  C   LIG    1       -0.722  -0.808  -0.627  0.00  0.00    +0.012 A 
ATOM     31  C   LIG    1       -2.092  -0.582  -0.723  0.00  0.00    +0.024 A 
BRANCH  26  33
ATOM     32  C   LIG    1       -4.879   1.712   0.025  0.00  0.00    +0.243 C 
ATOM     33  N   LIG    1       -4.037   0.757  -0.438  0.00  0.00    -0.282 N 
ATOM     34  H   LIG    1       -4.465   0.009  -0.964  0.00  0.00    +0.155 HD
ATOM     35  O   LIG    1       -4.539   2.663   0.730  0.00  0.00    -0.270 OA
BRANCH  32  37
ATOM     36  C   LIG    1       -6.969   2.845  -0.783  0.00  0.00    +0.048 C 
ATOM     37  C   LIG    1       -6.260   1.550  -0.402  0.00  0.00    +0.004 C 
ATOM     38  C   LIG    1       -6.864   0.343  -0.442  0.00  0.00    +0.017 C 
ENDBRANCH  32  37
ENDBRANCH  26  33
ENDBRANCH   1  29
BRANCH   8  39
ATOM     39  N   LIG    1        5.592   1.656  -1.215  0.00  0.00    -0.343 N 
ATOM     40  H   LIG    1        6.575   1.821  -1.376  0.00  0.00    +0.144 HD
ATOM     41  H   LIG    1        4.891   2.304  -1.544  0.00  0.00    +0.144 HD
ENDBRANCH   8  39
TORSDOF 7
