REMARK  Name = DB18296
REMARK                            x       y       z     vdW  Elec       q    Type
REMARK                         _______ _______ _______ _____ _____    ______ ____
ROOT
ATOM      1  N   LIG    1        1.234   0.473  -0.657  0.00  0.00    -0.231 N 
ENDROOT
BRANCH   1   2
ATOM      2  C   LIG    1        2.188   1.490  -0.384  0.00  0.00    +0.140 A 
ATOM      3  N   LIG    1        1.937   2.337   0.656  0.00  0.00    -0.211 NA
ATOM      4  C   LIG    1        2.837   3.301   0.853  0.00  0.00    +0.161 A 
ATOM      5  N   LIG    1        2.815   4.288   1.816  0.00  0.00    -0.249 N 
ATOM      6  C   LIG    1        1.826   4.526   2.856  0.00  0.00    +0.174 C 
ATOM      7  N   LIG    1        3.897   5.083   1.721  0.00  0.00    -0.174 NA
ATOM      8  C   LIG    1        4.625   4.657   0.714  0.00  0.00    +0.069 A 
ATOM      9  C   LIG    1        5.911   5.372   0.363  0.00  0.00    +0.068 C 
ATOM     10  C   LIG    1        4.012   3.513   0.096  0.00  0.00    +0.045 A 
ATOM     11  C   LIG    1        4.268   2.632  -0.980  0.00  0.00    -0.029 A 
ATOM     12  C   LIG    1        3.321   1.621  -1.200  0.00  0.00    +0.049 A 
BRANCH  11  13
ATOM     13  C   LIG    1        5.486   2.728  -1.901  0.00  0.00    +0.014 C 
ATOM     14  C   LIG    1        6.384   1.480  -1.809  0.00  0.00    +0.012 C 
ATOM     15  C   LIG    1        5.090   3.051  -3.354  0.00  0.00    +0.012 C 
ENDBRANCH  11  13
ENDBRANCH   1   2
BRANCH   1  19
ATOM     16  N   LIG    1       -2.068   1.120   0.544  0.00  0.00    -0.268 N 
ATOM     17  H   LIG    1       -2.113   0.193   0.941  0.00  0.00    +0.156 HD
ATOM     18  C   LIG    1       -0.946   1.424  -0.140  0.00  0.00    +0.320 C 
ATOM     19  N   LIG    1       -0.046   0.424  -0.021  0.00  0.00    -0.216 N 
ATOM     20  H   LIG    1       -0.393  -0.523   0.018  0.00  0.00    +0.175 HD
ATOM     21  O   LIG    1       -0.757   2.463  -0.776  0.00  0.00    -0.251 OA
BRANCH  16  27
ATOM     22  C   LIG    1       -4.528   3.932   0.770  0.00  0.00    +0.218 A 
ATOM     23  N   LIG    1       -5.588   3.291   1.340  0.00  0.00    -0.201 NA
ATOM     24  C   LIG    1       -5.468   1.972   1.632  0.00  0.00    +0.135 A 
ATOM     25 CL   LIG    1       -6.809   1.165   2.359  0.00  0.00    -0.062 Cl
ATOM     26  C   LIG    1       -4.302   1.252   1.366  0.00  0.00    +0.063 A 
ATOM     27  C   LIG    1       -3.216   1.903   0.772  0.00  0.00    +0.043 A 
ATOM     28  C   LIG    1       -3.333   3.272   0.475  0.00  0.00    +0.090 A 
BRANCH  22  29
ATOM     29  O   LIG    1       -4.625   5.280   0.474  0.00  0.00    -0.476 OA
BRANCH  29  30
ATOM     30  C   LIG    1       -5.834   5.983   0.766  0.00  0.00    +0.230 C 
BRANCH  30  32
ATOM     31  C   LIG    1       -6.927   8.290   0.598  0.00  0.00    +0.007 C 
ATOM     32  C   LIG    1       -5.670   7.449   0.340  0.00  0.00    +0.038 C 
ENDBRANCH  30  32
ENDBRANCH  29  30
ENDBRANCH  22  29
ENDBRANCH  16  27
ENDBRANCH   1  19
BRANCH   1  33
ATOM     33  C   LIG    1        1.630  -0.882  -1.061  0.00  0.00    +0.157 C 
BRANCH  33  34
ATOM     34  C   LIG    1        1.062  -1.180  -2.459  0.00  0.00    +0.176 C 
BRANCH  34  35
ATOM     35  O   LIG    1        1.448  -2.476  -2.861  0.00  0.00    -0.393 OA
ATOM     36  H   LIG    1        2.393  -2.475  -3.033  0.00  0.00    +0.209 HD
ENDBRANCH  34  35
ENDBRANCH  33  34
ENDBRANCH   1  33
TORSDOF 10
