REMARK  Name = DB18124
REMARK                            x       y       z     vdW  Elec       q    Type
REMARK                         _______ _______ _______ _____ _____    ______ ____
ROOT
ATOM      1  C   LIG    1       -0.719   1.104   0.008  0.00  0.00    +0.162 A 
ATOM      2  C   LIG    1       -0.099  -0.153  -0.006  0.00  0.00    +0.163 A 
ATOM      3  C   LIG    1       -0.885  -1.310  -0.152  0.00  0.00    +0.062 A 
ATOM      4  C   LIG    1       -2.282  -1.237  -0.285  0.00  0.00    +0.040 A 
ATOM      5  C   LIG    1       -2.880   0.028  -0.272  0.00  0.00    +0.017 A 
ATOM      6  C   LIG    1       -2.114   1.181  -0.127  0.00  0.00    +0.050 A 
ENDROOT
BRANCH   4   7
ATOM      7  C   LIG    1       -3.141  -2.478  -0.436  0.00  0.00    +0.245 C 
ATOM      8  N   LIG    1       -2.499  -3.668  -0.392  0.00  0.00    -0.295 N 
ATOM      9  H   LIG    1       -1.507  -3.640  -0.211  0.00  0.00    +0.150 HD
ATOM     10  O   LIG    1       -4.361  -2.383  -0.584  0.00  0.00    -0.270 OA
BRANCH   8  11
ATOM     11  C   LIG    1       -3.065  -5.036  -0.477  0.00  0.00    +0.140 C 
ATOM     12  C   LIG    1       -1.933  -6.007  -0.920  0.00  0.00    +0.073 C 
ATOM     13  C   LIG    1       -2.632  -7.077  -1.728  0.00  0.00    -0.042 A 
ATOM     14  C   LIG    1       -2.155  -8.308  -2.182  0.00  0.00    +0.004 A 
ATOM     15  C   LIG    1       -2.944  -9.086  -3.032  0.00  0.00    +0.000 A 
ATOM     16  C   LIG    1       -4.185  -8.612  -3.463  0.00  0.00    +0.000 A 
ATOM     17  C   LIG    1       -4.640  -7.360  -3.046  0.00  0.00    +0.004 A 
ATOM     18  C   LIG    1       -3.872  -6.605  -2.157  0.00  0.00    -0.042 A 
ATOM     19  C   LIG    1       -4.068  -5.190  -1.666  0.00  0.00    +0.073 C 
BRANCH  11  20
ATOM     20  C   LIG    1       -3.621  -5.335   0.968  0.00  0.00    +0.329 C 
ATOM     21  O   LIG    1       -4.858  -5.442   1.132  0.00  0.00    -0.249 OA
BRANCH  20  22
ATOM     22  O   LIG    1       -2.800  -5.457   1.911  0.00  0.00    -0.479 OA
ATOM     23  H   LIG    1       -3.106  -5.635   2.778  0.00  0.00    +0.295 HD
ENDBRANCH  20  22
ENDBRANCH  11  20
ENDBRANCH   8  11
ENDBRANCH   4   7
BRANCH   1  25
ATOM     24  C   LIG    1       -0.480   3.511   0.188  0.00  0.00    +0.277 C 
ATOM     25  O   LIG    1        0.099   2.211   0.156  0.00  0.00    -0.491 OA
ENDBRANCH   1  25
BRANCH   2  26
ATOM     26  O   LIG    1        1.279  -0.173   0.130  0.00  0.00    -0.488 OA
BRANCH  26  27
ATOM     27  C   LIG    1        1.977  -1.415   0.086  0.00  0.00    +0.234 C 
BRANCH  27  28
ATOM     28  C   LIG    1        3.480  -1.138   0.241  0.00  0.00    +0.076 C 
BRANCH  28  29
ATOM     29  C   LIG    1        4.320  -2.403   0.152  0.00  0.00    -0.044 A 
ATOM     30  C   LIG    1        4.561  -3.172   1.296  0.00  0.00    +0.007 A 
ATOM     31  C   LIG    1        5.331  -4.336   1.216  0.00  0.00    -0.050 A 
ATOM     32  C   LIG    1        5.578  -5.174   2.458  0.00  0.00    +0.044 C 
ATOM     33  C   LIG    1        5.852  -4.737  -0.017  0.00  0.00    +0.003 A 
ATOM     34  C   LIG    1        5.613  -3.975  -1.160  0.00  0.00    +0.001 A 
ATOM     35  C   LIG    1        4.849  -2.811  -1.077  0.00  0.00    +0.004 A 
ENDBRANCH  28  29
ENDBRANCH  27  28
ENDBRANCH  26  27
ENDBRANCH   2  26
TORSDOF 9
