REMARK  Name = DB18706
REMARK                            x       y       z     vdW  Elec       q    Type
REMARK                         _______ _______ _______ _____ _____    ______ ____
ROOT
ATOM      1  C   LIG    1        1.583  -0.000   0.045  0.00  0.00    +0.102 C 
ENDROOT
BRANCH   1   8
ATOM      2  C   LIG    1       -1.293  -7.343  -0.147  0.00  0.00    +0.065 C 
ATOM      3  C   LIG    1       -1.595  -5.860  -0.054  0.00  0.00    +0.039 A 
ATOM      4  N   LIG    1       -0.515  -5.036  -0.061  0.00  0.00    -0.255 NA
ATOM      5  C   LIG    1       -0.751  -3.703   0.018  0.00  0.00    +0.064 A 
ATOM      6  C   LIG    1        0.306  -2.630   0.020  0.00  0.00    +0.163 C 
ATOM      7  N   LIG    1       -0.480  -1.397   0.110  0.00  0.00    -0.291 N 
ATOM      8  C   LIG    1        0.047  -0.150   0.133  0.00  0.00    +0.217 C 
ATOM      9  O   LIG    1       -0.659   0.857   0.218  0.00  0.00    -0.276 OA
ATOM     10  C   LIG    1       -1.924  -1.645   0.175  0.00  0.00    +0.145 C 
ATOM     11  C   LIG    1       -2.022  -3.150   0.105  0.00  0.00    -0.004 A 
ATOM     12  C   LIG    1       -3.131  -4.006   0.114  0.00  0.00    -0.042 A 
ATOM     13  C   LIG    1       -4.556  -3.490   0.202  0.00  0.00    +0.044 C 
ATOM     14  C   LIG    1       -2.910  -5.387   0.032  0.00  0.00    +0.026 A 
ENDBRANCH   1   8
BRANCH   1  15
ATOM     15  C   LIG    1        2.101   1.460  -0.004  0.00  0.00    +0.032 C 
ATOM     16  C   LIG    1        3.584   1.604  -0.317  0.00  0.00    +0.110 C 
ATOM     17  N   LIG    1        3.276   2.174  -1.628  0.00  0.00    -0.329 N 
ATOM     18  C   LIG    1        1.850   2.211  -1.306  0.00  0.00    +0.110 C 
BRANCH  17  19
ATOM     19  C   LIG    1        4.040   3.005  -2.459  0.00  0.00    +0.033 A 
ATOM     20  C   LIG    1        5.436   3.037  -2.352  0.00  0.00    +0.055 A 
ATOM     21  C   LIG    1        6.174   3.837  -3.235  0.00  0.00    +0.145 A 
ATOM     22  N   LIG    1        5.580   4.580  -4.208  0.00  0.00    -0.251 NA
ATOM     23  C   LIG    1        4.230   4.526  -4.319  0.00  0.00    +0.113 A 
ATOM     24  C   LIG    1        3.432   3.750  -3.478  0.00  0.00    +0.043 A 
BRANCH  21  25
ATOM     25  C   LIG    1        7.698   3.926  -3.171  0.00  0.00    +0.434 C 
ATOM     26  F   LIG    1        8.069   5.185  -2.934  0.00  0.00    -0.164 F 
ATOM     27  F   LIG    1        8.226   3.536  -4.332  0.00  0.00    -0.164 F 
ATOM     28  F   LIG    1        8.207   3.156  -2.207  0.00  0.00    -0.164 F 
ENDBRANCH  21  25
ENDBRANCH  17  19
ENDBRANCH   1  15
TORSDOF 4
