REMARK  Name = DB18246
REMARK                            x       y       z     vdW  Elec       q    Type
REMARK                         _______ _______ _______ _____ _____    ______ ____
ROOT
ATOM      1  C   UNK A 11        0.525   0.720  -1.027  0.00  0.00    +0.190 C 
ATOM      2  C   UNK A 11       -0.341  -0.294  -0.237  0.00  0.00    +0.237 C 
ATOM      3  O   UNK A 11       -0.829  -1.253  -0.832  0.00  0.00    -0.274 OA
ATOM      4  N   UNK A  1       -0.435  -0.073   1.087  0.00  0.00    -0.302 N 
ATOM      5  H   UNK A  1       -0.023   0.779   1.439  0.00  0.00    +0.150 HD
ATOM      6  C   UNK A  1       -0.907  -0.981   2.140  0.00  0.00    +0.159 C 
ATOM      7  C   UNK A  1       -2.184  -1.822   1.841  0.00  0.00    +0.236 C 
ATOM      8  O   UNK A  1       -2.016  -3.043   1.803  0.00  0.00    -0.274 OA
ATOM      9  N   ALA A  2       -3.413  -1.238   1.702  0.00  0.00    -0.292 N 
ATOM     10  C   ACE A  0       -3.593   0.203   1.483  0.00  0.00    +0.133 C 
ATOM     11  CA  ALA A  2       -4.692  -1.998   1.581  0.00  0.00    +0.159 C 
ATOM     12  CB  ALA A  2       -4.813  -3.146   2.618  0.00  0.00    +0.038 C 
ATOM     13  C   ALA A  2       -5.012  -2.472   0.138  0.00  0.00    +0.236 C 
ATOM     14  O   ALA A  2       -4.068  -2.539  -0.654  0.00  0.00    -0.274 OA
ATOM     15  N   LEU A  3       -6.286  -2.829  -0.194  0.00  0.00    -0.291 N 
ATOM     16  C   ACE A  0       -6.532  -3.345  -1.553  0.00  0.00    +0.133 C 
ATOM     17  CA  LEU A  3       -7.485  -2.562   0.649  0.00  0.00    +0.162 C 
ATOM     18  C   LEU A  3       -8.302  -3.836   0.998  0.00  0.00    +0.234 C 
ATOM     19  O   LEU A  3       -7.861  -4.958   0.741  0.00  0.00    -0.274 OA
ATOM     20  N   VAL A  4       -9.468  -3.630   1.627  0.00  0.00    -0.302 N 
ATOM     21  H   VAL A  4       -9.752  -2.679   1.813  0.00  0.00    +0.150 HD
ATOM     22  CA  VAL A  4      -10.405  -4.654   2.089  0.00  0.00    +0.162 C 
ATOM     23  C   VAL A  4      -11.862  -4.172   1.787  0.00  0.00    +0.237 C 
ATOM     24  O   VAL A  4      -12.594  -3.905   2.744  0.00  0.00    -0.274 OA
ATOM     25  N   LEU A  5      -12.279  -4.029   0.490  0.00  0.00    -0.291 N 
ATOM     26  C   ACE A  0      -13.641  -3.514   0.240  0.00  0.00    +0.133 C 
ATOM     27  CA  LEU A  5      -11.513  -4.541  -0.683  0.00  0.00    +0.162 C 
ATOM     28  C   LEU A  5      -11.320  -3.539  -1.846  0.00  0.00    +0.234 C 
ATOM     29  O   LEU A  5      -12.233  -2.790  -2.190  0.00  0.00    -0.274 OA
ATOM     30  N   ALA A  6      -10.129  -3.622  -2.464  0.00  0.00    -0.303 N 
ATOM     31  H   ALA A  6       -9.457  -4.276  -2.090  0.00  0.00    +0.149 HD
ATOM     32  CA  ALA A  6       -9.681  -2.935  -3.681  0.00  0.00    +0.156 C 
ATOM     33  CB  ALA A  6      -10.600  -3.257  -4.877  0.00  0.00    +0.038 C 
ATOM     34  C   ALA A  6       -9.477  -1.418  -3.520  0.00  0.00    +0.234 C 
ATOM     35  O   ALA A  6      -10.442  -0.672  -3.354  0.00  0.00    -0.274 OA
ATOM     36  N   ALA A  7       -8.204  -1.004  -3.631  0.00  0.00    -0.303 N 
ATOM     37  H   ALA A  7       -7.481  -1.698  -3.754  0.00  0.00    +0.149 HD
ATOM     38  CA  ALA A  7       -7.732   0.381  -3.712  0.00  0.00    +0.156 C 
ATOM     39  CB  ALA A  7       -8.217   0.965  -5.059  0.00  0.00    +0.038 C 
ATOM     40  C   ALA A  7       -6.186   0.399  -3.622  0.00  0.00    +0.236 C 
ATOM     41  O   ALA A  7       -5.622  -0.613  -4.053  0.00  0.00    -0.274 OA
ATOM     42  N   LEU A  8       -5.482   1.479  -3.147  0.00  0.00    -0.291 N 
ATOM     43  C   ACE A  0       -4.011   1.389  -3.134  0.00  0.00    +0.133 C 
ATOM     44  CA  LEU A  8       -5.933   2.734  -2.471  0.00  0.00    +0.162 C 
ATOM     45  C   LEU A  8       -6.254   2.519  -0.965  0.00  0.00    +0.236 C 
ATOM     46  O   LEU A  8       -7.112   1.673  -0.717  0.00  0.00    -0.274 OA
ATOM     47  N   LEU A  9       -5.599   3.215   0.015  0.00  0.00    -0.291 N 
ATOM     48  C   ACE A  0       -5.895   2.876   1.422  0.00  0.00    +0.133 C 
ATOM     49  CA  LEU A  9       -4.735   4.410  -0.215  0.00  0.00    +0.162 C 
ATOM     50  C   LEU A  9       -3.218   4.128   0.025  0.00  0.00    +0.236 C 
ATOM     51  O   LEU A  9       -2.919   3.413   0.981  0.00  0.00    -0.274 OA
ATOM     52  N   VAL A 10       -2.290   4.660  -0.827  0.00  0.00    -0.291 N 
ATOM     53  C   ACE A  0       -2.684   5.588  -1.897  0.00  0.00    +0.133 C 
ATOM     54  CA  VAL A 10       -0.816   4.414  -0.814  0.00  0.00    +0.164 C 
ATOM     55  C   VAL A 10       -0.290   3.012  -0.357  0.00  0.00    +0.237 C 
ATOM     56  O   VAL A 10        0.051   2.871   0.818  0.00  0.00    -0.274 OA
ATOM     57  N   UNK A 11       -0.170   2.014  -1.280  0.00  0.00    -0.289 N 
ATOM     58  C   UNK A 11       -0.800   2.087  -2.604  0.00  0.00    +0.133 C 
ENDROOT
BRANCH  22  59
ATOM     59  CB  VAL A  4      -10.188  -4.981   3.612  0.00  0.00    +0.012 C 
ATOM     60  CG2 VAL A  4       -8.966  -5.895   3.828  0.00  0.00    +0.009 C 
ATOM     61  CG1 VAL A  4      -10.066  -3.746   4.537  0.00  0.00    +0.009 C 
ENDBRANCH  22  59
BRANCH  54  62
ATOM     62  CB  VAL A 10       -0.023   5.579  -0.123  0.00  0.00    +0.012 C 
ATOM     63  CG2 VAL A 10       -0.198   5.710   1.405  0.00  0.00    +0.009 C 
ATOM     64  CG1 VAL A 10        1.476   5.561  -0.477  0.00  0.00    +0.009 C 
ENDBRANCH  54  62
BRANCH   6  65
ATOM     65  C   UNK A  1       -0.960  -0.259   3.514  0.00  0.00    +0.028 C 
ATOM     66  C   UNK A  1       -1.209  -1.174   4.728  0.00  0.00    +0.006 C 
ENDBRANCH   6  65
BRANCH  17  67
ATOM     67  CB  LEU A  3       -8.325  -1.428  -0.012  0.00  0.00    +0.035 C 
BRANCH  67  68
ATOM     68  CG  LEU A  3       -9.229  -0.569   0.911  0.00  0.00    -0.015 C 
ATOM     69  CD2 LEU A  3       -8.453   0.053   2.091  0.00  0.00    +0.007 C 
ATOM     70  CD1 LEU A  3      -10.003   0.486   0.092  0.00  0.00    +0.007 C 
ENDBRANCH  67  68
ENDBRANCH  17  67
BRANCH  27  71
ATOM     71  CB  LEU A  5      -12.146  -5.875  -1.170  0.00  0.00    +0.035 C 
BRANCH  71  72
ATOM     72  CG  LEU A  5      -11.298  -6.703  -2.166  0.00  0.00    -0.015 C 
ATOM     73  CD2 LEU A  5       -9.906  -7.064  -1.602  0.00  0.00    +0.007 C 
ATOM     74  CD1 LEU A  5      -12.073  -7.951  -2.644  0.00  0.00    +0.007 C 
ENDBRANCH  71  72
ENDBRANCH  27  71
BRANCH  44  75
ATOM     75  CB  LEU A  8       -7.043   3.511  -3.232  0.00  0.00    +0.035 C 
BRANCH  75  76
ATOM     76  CG  LEU A  8       -7.256   4.986  -2.815  0.00  0.00    -0.015 C 
ATOM     77  CD2 LEU A  8       -6.096   5.891  -3.286  0.00  0.00    +0.007 C 
ATOM     78  CD1 LEU A  8       -8.628   5.510  -3.294  0.00  0.00    +0.007 C 
ENDBRANCH  75  76
ENDBRANCH  44  75
BRANCH  49  79
ATOM     79  CB  LEU A  9       -5.316   5.664   0.513  0.00  0.00    +0.035 C 
BRANCH  79  80
ATOM     80  CG  LEU A  9       -4.854   5.983   1.960  0.00  0.00    -0.015 C 
ATOM     81  CD2 LEU A  9       -3.617   6.904   1.982  0.00  0.00    +0.007 C 
ATOM     82  CD1 LEU A  9       -6.000   6.576   2.807  0.00  0.00    +0.007 C 
ENDBRANCH  79  80
ENDBRANCH  49  79
BRANCH   1  83
ATOM     83  C   UNK A 11        2.003   0.844  -0.502  0.00  0.00    +0.147 C 
BRANCH  83  84
ATOM     84  C   UNK A 11        2.763  -0.496  -0.223  0.00  0.00    +0.017 C 
ATOM     85  C   UNK A 11        4.149  -0.240   0.414  0.00  0.00    +0.010 C 
BRANCH  84  86
ATOM     86  C   UNK A 11        2.850  -1.437  -1.457  0.00  0.00    +0.006 C 
BRANCH  86  87
ATOM     87  C   UNK A 11        3.350  -2.862  -1.145  0.00  0.00    +0.000 C 
BRANCH  87  88
ATOM     88  C   UNK A 11        3.270  -3.802  -2.365  0.00  0.00    +0.000 C 
BRANCH  88  89
ATOM     89  C   UNK A 11        3.660  -5.263  -2.069  0.00  0.00    +0.002 C 
BRANCH  89  90
ATOM     90  C   UNK A 11        5.143  -5.463  -1.702  0.00  0.00    +0.019 C 
BRANCH  90  91
ATOM     91  C   UNK A 11        5.518  -6.946  -1.510  0.00  0.00    +0.104 C 
BRANCH  91  92
ATOM     92  N   UNK A 11        6.909  -7.157  -1.112  0.00  0.00    -0.316 N 
ATOM     93  H   UNK A 11        7.067  -7.389  -0.143  0.00  0.00    +0.149 HD
ATOM     94  C   UNK A 11        7.968  -7.070  -1.936  0.00  0.00    +0.210 C 
ATOM     95  O   UNK A 11        7.884  -6.806  -3.135  0.00  0.00    -0.276 OA
ATOM     96  C   UNK A 11        9.337  -7.320  -1.312  0.00  0.00    +0.109 C 
ENDBRANCH  91  92
ENDBRANCH  90  91
ENDBRANCH  89  90
ENDBRANCH  88  89
ENDBRANCH  87  88
ENDBRANCH  86  87
ENDBRANCH  84  86
ENDBRANCH  83  84
BRANCH  83  97
ATOM     97  O   UNK A 11        2.745   1.582  -1.460  0.00  0.00    -0.389 OA
ATOM     98  H   UNK A 11        2.264   2.387  -1.664  0.00  0.00    +0.210 HD
ENDBRANCH  83  97
ENDBRANCH   1  83
TORSDOF 21
