REMARK  Name = DB18039
REMARK                            x       y       z     vdW  Elec       q    Type
REMARK                         _______ _______ _______ _____ _____    ______ ____
ROOT
ATOM      1  C   LIG    1       -5.007  -1.100   0.069  0.00  0.00    +0.085 A 
ATOM      2  C   LIG    1       -4.318  -2.394  -0.047  0.00  0.00    +0.263 A 
ATOM      3  O   LIG    1       -4.942  -3.448  -0.216  0.00  0.00    -0.267 OA
ATOM      4  N   LIG    1       -2.945  -2.341   0.074  0.00  0.00    -0.304 N 
ATOM      5  C   LIG    1       -2.186  -1.132  -0.064  0.00  0.00    +0.057 A 
ATOM      6  C   LIG    1       -0.790  -1.105  -0.264  0.00  0.00    +0.070 A 
ATOM      7  C   LIG    1       -0.114   0.114  -0.336  0.00  0.00    +0.121 A 
ATOM      8  N   LIG    1       -0.765   1.300  -0.235  0.00  0.00    -0.240 NA
ATOM      9  C   LIG    1       -2.107   1.283  -0.068  0.00  0.00    +0.123 A 
ATOM     10  C   LIG    1       -2.861   0.103   0.018  0.00  0.00    +0.021 A 
ATOM     11  C   LIG    1       -4.344   0.095   0.139  0.00  0.00    -0.024 A 
ATOM     12  C   LIG    1       -5.009   1.476   0.279  0.00  0.00    +0.045 C 
ENDROOT
BRANCH   4  13
ATOM     13  C   LIG    1       -2.179  -3.626   0.168  0.00  0.00    +0.091 C 
ATOM     14  C   LIG    1       -2.598  -4.605   1.293  0.00  0.00    +0.025 C 
ATOM     15  C   LIG    1       -2.169  -5.979   0.777  0.00  0.00    +0.002 C 
ATOM     16  C   LIG    1       -2.442  -5.911  -0.726  0.00  0.00    +0.002 C 
ATOM     17  C   LIG    1       -2.150  -4.460  -1.137  0.00  0.00    +0.025 C 
ENDBRANCH   4  13
BRANCH   1  19
ATOM     18  C   LIG    1       -7.258  -0.882  -1.144  0.00  0.00    +0.092 C 
ATOM     19  C   LIG    1       -6.474  -1.093   0.149  0.00  0.00    +0.166 C 
ATOM     20  O   LIG    1       -7.078  -1.266   1.207  0.00  0.00    -0.292 OA
ENDBRANCH   1  19
BRANCH   7  21
ATOM     21  N   LIG    1        1.278   0.088  -0.534  0.00  0.00    -0.324 N 
ATOM     22  H   LIG    1        1.732  -0.811  -0.471  0.00  0.00    +0.148 HD
BRANCH  21  23
ATOM     23  C   LIG    1        2.126   1.271  -0.351  0.00  0.00    +0.105 C 
ATOM     24  C   LIG    1        2.615   1.371   1.118  0.00  0.00    +0.160 C 
ATOM     25  C   LIG    1        3.640   2.519   1.236  0.00  0.00    +0.193 C 
ATOM     26  O   LIG    1        4.738   2.261   0.361  0.00  0.00    -0.377 OA
ATOM     27  C   LIG    1        4.370   2.274  -1.020  0.00  0.00    +0.162 C 
ATOM     28  C   LIG    1        3.333   1.168  -1.310  0.00  0.00    +0.053 C 
BRANCH  24  29
ATOM     29  O   LIG    1        1.557   1.569   2.039  0.00  0.00    -0.388 OA
ATOM     30  H   LIG    1        1.260   2.480   1.972  0.00  0.00    +0.210 HD
ENDBRANCH  24  29
ENDBRANCH  21  23
ENDBRANCH   7  21
TORSDOF 5
