REMARK  Name = DB18689
REMARK                            x       y       z     vdW  Elec       q    Type
REMARK                         _______ _______ _______ _____ _____    ______ ____
ROOT
ATOM      1  O   LIG    1        0.798  -1.931   0.145  0.00  0.00    -0.284 OA
ENDROOT
BRANCH   1   2
ATOM      2  P   LIG    1        1.640  -0.430   0.293  0.00  0.00    +0.483 P 
ATOM      3  O   LIG    1        2.857  -0.448  -0.607  0.00  0.00    -0.227 OA
BRANCH   2   4
ATOM      4  O   LIG    1        1.703  -0.057   1.757  0.00  0.00    -0.302 OA
ATOM      5  H   LIG    1        2.173   0.785   1.856  0.00  0.00    +0.222 HD
ENDBRANCH   2   4
BRANCH   2   6
ATOM      6  O   LIG    1        0.435   0.529  -0.455  0.00  0.00    -0.186 OA
BRANCH   6   7
ATOM      7  P   LIG    1       -0.954   1.486  -0.147  0.00  0.00    +0.486 P 
ATOM      8  O   LIG    1       -0.728   2.243   1.143  0.00  0.00    -0.227 OA
BRANCH   7   9
ATOM      9  O   LIG    1       -1.328   2.173  -1.442  0.00  0.00    -0.302 OA
ATOM     10  H   LIG    1       -2.114   2.724  -1.301  0.00  0.00    +0.222 HD
ENDBRANCH   7   9
BRANCH   7  11
ATOM     11  O   LIG    1       -2.107   0.222   0.124  0.00  0.00    -0.254 OA
BRANCH  11  17
ATOM     12  C   LIG    1       -2.932   0.897   4.685  0.00  0.00    +0.041 C 
ATOM     13  C   LIG    1       -2.523  -0.191   3.677  0.00  0.00    +0.149 C 
ATOM     14  C   LIG    1       -3.424  -1.453   3.735  0.00  0.00    +0.174 C 
ATOM     15  C   LIG    1       -2.978  -2.471   2.655  0.00  0.00    +0.179 C 
ATOM     16  C   LIG    1       -2.862  -1.802   1.262  0.00  0.00    +0.202 C 
ATOM     17  C   LIG    1       -2.042  -0.492   1.350  0.00  0.00    +0.293 C 
ATOM     18  O   LIG    1       -2.588   0.357   2.360  0.00  0.00    -0.343 OA
BRANCH  14  19
ATOM     19  O   LIG    1       -4.802  -1.127   3.625  0.00  0.00    -0.387 OA
ATOM     20  H   LIG    1       -4.943  -0.697   2.778  0.00  0.00    +0.210 HD
ENDBRANCH  14  19
BRANCH  15  21
ATOM     21  O   LIG    1       -3.801  -3.626   2.640  0.00  0.00    -0.386 OA
ATOM     22  H   LIG    1       -4.693  -3.362   2.405  0.00  0.00    +0.210 HD
ENDBRANCH  15  21
BRANCH  16  23
ATOM     23  O   LIG    1       -2.297  -2.682   0.310  0.00  0.00    -0.384 OA
ATOM     24  H   LIG    1       -2.208  -2.208  -0.520  0.00  0.00    +0.210 HD
ENDBRANCH  16  23
ENDBRANCH  11  17
ENDBRANCH   7  11
ENDBRANCH   6   7
ENDBRANCH   2   6
ENDBRANCH   1   2
BRANCH   1  25
ATOM     25  C   LIG    1        0.816  -2.579  -1.117  0.00  0.00    +0.206 C 
BRANCH  25  26
ATOM     26  C   LIG    1        1.895  -3.681  -1.105  0.00  0.00    +0.178 C 
ATOM     27  C   LIG    1        1.998  -4.508  -2.387  0.00  0.00    +0.178 C 
ATOM     28  C   LIG    1        0.858  -5.517  -2.246  0.00  0.00    +0.195 C 
ATOM     29  C   LIG    1        0.881  -5.762  -0.730  0.00  0.00    +0.253 C 
ATOM     30  O   LIG    1        1.518  -4.660  -0.145  0.00  0.00    -0.346 OA
BRANCH  29  31
ATOM     31  N   LIG    1       -0.445  -6.041  -0.041  0.00  0.00    -0.285 N 
ATOM     32  C   LIG    1       -0.584  -6.397   1.273  0.00  0.00    +0.171 A 
ATOM     33  N   LIG    1        0.423  -6.620   2.168  0.00  0.00    -0.196 NA
ATOM     34  C   LIG    1       -0.004  -6.947   3.343  0.00  0.00    +0.195 A 
ATOM     35  N   LIG    1       -1.352  -7.064   3.646  0.00  0.00    -0.293 N 
ATOM     36  H   LIG    1       -1.596  -7.328   4.589  0.00  0.00    +0.172 HD
ATOM     37  C   LIG    1       -2.422  -6.869   2.807  0.00  0.00    +0.280 A 
ATOM     38  O   LIG    1       -3.586  -7.015   3.176  0.00  0.00    -0.265 OA
ATOM     39  C   LIG    1       -1.931  -6.486   1.499  0.00  0.00    +0.172 A 
ATOM     40  N   LIG    1       -2.631  -6.180   0.399  0.00  0.00    -0.229 NA
ATOM     41  C   LIG    1       -1.712  -5.890  -0.491  0.00  0.00    +0.203 A 
BRANCH  34  42
ATOM     42  N   LIG    1        0.849  -7.197   4.345  0.00  0.00    -0.329 N 
ATOM     43  H   LIG    1        0.510  -7.457   5.260  0.00  0.00    +0.145 HD
ATOM     44  H   LIG    1        1.845  -7.122   4.194  0.00  0.00    +0.145 HD
ENDBRANCH  34  42
ENDBRANCH  29  31
BRANCH  27  45
ATOM     45  O   LIG    1        3.281  -5.099  -2.526  0.00  0.00    -0.386 OA
ATOM     46  H   LIG    1        3.276  -5.664  -3.302  0.00  0.00    +0.210 HD
ENDBRANCH  27  45
BRANCH  28  47
ATOM     47  O   LIG    1        0.995  -6.733  -2.961  0.00  0.00    -0.385 OA
ATOM     48  H   LIG    1        0.855  -6.556  -3.894  0.00  0.00    +0.210 HD
ENDBRANCH  28  47
ENDBRANCH  25  26
ENDBRANCH   1  25
TORSDOF 16
