REMARK  Name = DB18104
REMARK                            x       y       z     vdW  Elec       q    Type
REMARK                         _______ _______ _______ _____ _____    ______ ____
ROOT
ATOM      1  C   LIG    1        1.629  -0.032  -0.239  0.00  0.00    +0.043 A 
ATOM      2  C   LIG    1        2.306   1.198  -0.146  0.00  0.00    +0.150 A 
ATOM      3  O   LIG    1        1.517   2.331  -0.044  0.00  0.00    -0.454 OA
ATOM      4  C   LIG    1        2.106   3.546   0.060  0.00  0.00    +0.141 A 
ATOM      5  C   LIG    1        3.438   3.744   0.077  0.00  0.00    +0.098 A 
ATOM      6  C   LIG    1        4.378   2.638  -0.035  0.00  0.00    +0.197 A 
ATOM      7  O   LIG    1        5.597   2.807  -0.032  0.00  0.00    -0.287 OA
ATOM      8  C   LIG    1        3.716   1.282  -0.142  0.00  0.00    +0.106 A 
ATOM      9  C   LIG    1        4.446   0.081  -0.233  0.00  0.00    +0.135 A 
ATOM     10  C   LIG    1        3.784  -1.141  -0.305  0.00  0.00    +0.092 A 
ATOM     11  C   LIG    1        2.393  -1.209  -0.302  0.00  0.00    +0.143 A 
ENDROOT
BRANCH   1  17
ATOM     12  C   LIG    1       -4.192  -1.099   0.008  0.00  0.00    -0.096 C 
ATOM     13  N   LIG    1       -2.653  -1.173   0.019  0.00  0.00    +0.380 N 
ATOM     14  H   LIG    1       -2.372  -2.114   0.262  0.00  0.00    -0.082 HD
ATOM     15  C   LIG    1       -2.075  -0.208   1.084  0.00  0.00    -0.047 C 
ATOM     16  C   LIG    1       -0.541  -0.392   1.135  0.00  0.00    +0.106 C 
ATOM     17  C   LIG    1        0.083  -0.079  -0.252  0.00  0.00    +0.051 C 
ATOM     18  C   LIG    1       -0.553  -0.944  -1.377  0.00  0.00    -0.008 C 
ATOM     19  C   LIG    1       -2.094  -0.845  -1.387  0.00  0.00    -0.078 C 
BRANCH  16  20
ATOM     20  O   LIG    1       -0.203  -1.683   1.615  0.00  0.00    -0.393 OA
ATOM     21  H   LIG    1       -0.182  -2.293   0.873  0.00  0.00    +0.210 HD
ENDBRANCH  16  20
ENDBRANCH   1  17
BRANCH   4  22
ATOM     22  C   LIG    1        1.098   4.608   0.201  0.00  0.00    +0.036 A 
ATOM     23  C   LIG    1        0.835   5.226   1.436  0.00  0.00    +0.052 A 
ATOM     24 CL   LIG    1        1.696   4.783   2.871  0.00  0.00    -0.083 Cl
ATOM     25  C   LIG    1       -0.148   6.214   1.528  0.00  0.00    +0.021 A 
ATOM     26  C   LIG    1       -0.878   6.588   0.400  0.00  0.00    +0.001 A 
ATOM     27  C   LIG    1       -0.630   5.971  -0.824  0.00  0.00    +0.001 A 
ATOM     28  C   LIG    1        0.350   4.983  -0.921  0.00  0.00    +0.013 A 
ENDBRANCH   4  22
BRANCH   9  29
ATOM     29  O   LIG    1        5.818   0.042  -0.242  0.00  0.00    -0.506 OA
ATOM     30  H   LIG    1        6.164  -0.851  -0.307  0.00  0.00    +0.292 HD
ENDBRANCH   9  29
BRANCH  11  31
ATOM     31  O   LIG    1        1.768  -2.426  -0.323  0.00  0.00    -0.403 OA
BRANCH  31  32
ATOM     32  P   LIG    1        2.305  -3.968  -0.975  0.00  0.00    +0.528 P 
ATOM     33  O   LIG    1        1.012  -4.704  -1.372  0.00  0.00    -0.216 OA
BRANCH  32  34
ATOM     34  O   LIG    1        3.066  -4.660   0.169  0.00  0.00    -0.293 OA
ATOM     35  H   LIG    1        3.868  -4.155   0.376  0.00  0.00    +0.223 HD
ENDBRANCH  32  34
BRANCH  32  36
ATOM     36  O   LIG    1        3.200  -3.638  -2.184  0.00  0.00    -0.293 OA
ATOM     37  H   LIG    1        3.997  -3.177  -1.880  0.00  0.00    +0.223 HD
ENDBRANCH  32  36
ENDBRANCH  31  32
ENDBRANCH  11  31
TORSDOF 8
