REMARK  Name = DB18064
REMARK                            x       y       z     vdW  Elec       q    Type
REMARK                         _______ _______ _______ _____ _____    ______ ____
ROOT
ATOM      1  C   LIG    1        5.834   0.097  -0.269  0.00  0.00    +0.020 A 
ATOM      2  C   LIG    1        6.551   0.136  -1.467  0.00  0.00    +0.118 A 
ATOM      3  N   LIG    1        7.894   0.223  -1.201  0.00  0.00    -0.274 N 
ATOM      4  N   LIG    1        8.936   0.306  -2.049  0.00  0.00    -0.279 N 
ATOM      5  H   LIG    1        8.735   0.305  -3.039  0.00  0.00    +0.167 HD
ATOM      6  C   LIG    1       10.199   0.399  -1.610  0.00  0.00    +0.115 C 
ATOM      7  C   LIG    1       10.456   0.401  -0.244  0.00  0.00    +0.048 C 
ATOM      8  C   LIG    1        9.413   0.301   0.692  0.00  0.00    +0.094 C 
ATOM      9  C   LIG    1        8.081   0.219   0.201  0.00  0.00    +0.062 A 
ATOM     10  C   LIG    1        6.774   0.154   0.762  0.00  0.00    +0.036 A 
ENDROOT
BRANCH   8  11
ATOM     11  N   LIG    1        9.657   0.284   2.064  0.00  0.00    -0.286 NA
ATOM     12  C   LIG    1        9.116  -0.804   2.894  0.00  0.00    +0.104 C 
ATOM     13  C   LIG    1        8.969  -0.486   4.395  0.00  0.00    +0.126 C 
ATOM     14  N   LIG    1       10.211   0.105   4.904  0.00  0.00    -0.265 N 
ATOM     15  C   LIG    1       10.493  -0.076   6.272  0.00  0.00    +0.403 C 
ATOM     16  O   LIG    1        9.937  -0.896   7.009  0.00  0.00    -0.226 OA
ATOM     17  C   LIG    1       10.849   1.188   4.136  0.00  0.00    +0.126 C 
ATOM     18  C   LIG    1       10.901   0.821   2.636  0.00  0.00    +0.104 C 
BRANCH  15  19
ATOM     19  O   LIG    1       11.486   0.750   6.708  0.00  0.00    -0.445 OA
BRANCH  19  20
ATOM     20  C   LIG    1       11.882   0.813   8.080  0.00  0.00    +0.206 C 
ATOM     21  C   LIG    1       13.099   1.731   8.172  0.00  0.00    +0.204 C 
ATOM     22  O   LIG    1       12.543   3.031   8.306  0.00  0.00    -0.376 OA
ATOM     23  C   LIG    1       11.388   2.942   9.136  0.00  0.00    +0.163 C 
ATOM     24  C   LIG    1       10.856   1.515   8.967  0.00  0.00    +0.075 C 
ENDBRANCH  19  20
ENDBRANCH  15  19
ENDBRANCH   8  11
BRANCH   1  28
ATOM     25  C   LIG    1        1.564  -0.112   0.005  0.00  0.00    +0.002 A 
ATOM     26  C   LIG    1        2.278  -0.048  -1.202  0.00  0.00    +0.117 A 
ATOM     27  N   LIG    1        3.632   0.005  -1.276  0.00  0.00    -0.255 NA
ATOM     28  C   LIG    1        4.345   0.020  -0.119  0.00  0.00    +0.072 A 
ATOM     29  C   LIG    1        3.718  -0.019   1.131  0.00  0.00    +0.029 A 
ATOM     30  C   LIG    1        2.325  -0.076   1.186  0.00  0.00    +0.010 A 
BRANCH  25  31
ATOM     31  C   LIG    1        0.013  -0.122   0.035  0.00  0.00    +0.092 C 
ATOM     32  C   LIG    1       -0.612  -0.832  -1.208  0.00  0.00    +0.021 C 
ATOM     33  C   LIG    1       -0.204  -2.318  -1.308  0.00  0.00    -0.075 C 
ATOM     34  N   LIG    1       -0.683  -3.051  -0.027  0.00  0.00    +0.381 N 
ATOM     35  H   LIG    1       -1.686  -2.934   0.006  0.00  0.00    -0.081 HD
ATOM     36  C   LIG    1       -0.149  -2.386   1.268  0.00  0.00    -0.075 C 
ATOM     37  C   LIG    1       -0.561  -0.898   1.264  0.00  0.00    +0.021 C 
BRANCH  34  38
ATOM     38  C   LIG    1       -0.423  -4.586  -0.038  0.00  0.00    -0.075 C 
ATOM     39  C   LIG    1       -1.352  -5.265  -1.062  0.00  0.00    -0.014 C 
ATOM     40  C   LIG    1        1.067  -4.938  -0.246  0.00  0.00    -0.014 C 
ENDBRANCH  34  38
BRANCH  31  41
ATOM     41  O   LIG    1       -0.372   1.261   0.075  0.00  0.00    -0.369 OA
BRANCH  41  43
ATOM     42  C   LIG    1       -1.817   3.170   0.154  0.00  0.00    +0.034 C 
ATOM     43  C   LIG    1       -1.746   1.640   0.144  0.00  0.00    +0.157 C 
ENDBRANCH  41  43
ENDBRANCH  31  41
ENDBRANCH  25  31
ENDBRANCH   1  28
TORSDOF 8
