REMARK  Name = DB18077
REMARK                            x       y       z     vdW  Elec       q    Type
REMARK                         _______ _______ _______ _____ _____    ______ ____
ROOT
ATOM      1  C   LIG    1       -0.074  -0.344  -0.725  0.00  0.00    +0.179 C 
ENDROOT
BRANCH   1   2
ATOM      2  C   LIG    1        1.489  -0.379  -0.562  0.00  0.00    +0.175 C 
ATOM      3  C   LIG    1        2.171  -1.682  -1.086  0.00  0.00    +0.240 C 
ATOM      4  O   LIG    1        1.504  -2.530  -1.690  0.00  0.00    -0.273 OA
ATOM      5  N   LIG    1        3.526  -1.753  -0.866  0.00  0.00    -0.269 N 
ATOM      6  C   LIG    1        4.165  -2.872  -1.604  0.00  0.00    +0.138 C 
ATOM      7  C   LIG    1        4.339  -0.964  -0.058  0.00  0.00    +0.096 C 
ATOM      8  C   LIG    1        4.255   0.377   0.184  0.00  0.00    +0.017 C 
ATOM      9  C   LIG    1        3.224   1.368  -0.338  0.00  0.00    +0.114 C 
ATOM     10  N   LIG    1        2.088   0.862  -1.099  0.00  0.00    -0.289 NA
ATOM     11  C   LIG    1        2.282   0.939  -2.549  0.00  0.00    +0.106 C 
BRANCH   7  12
ATOM     12  C   LIG    1        5.423  -1.595   0.693  0.00  0.00    +0.262 C 
ATOM     13  N   LIG    1        6.658  -1.115   0.404  0.00  0.00    -0.280 N 
ATOM     14  H   LIG    1        6.688  -0.324  -0.222  0.00  0.00    +0.155 HD
ATOM     15  O   LIG    1        5.191  -2.520   1.473  0.00  0.00    -0.268 OA
BRANCH  13  16
ATOM     16  C   LIG    1        7.916  -1.510   0.896  0.00  0.00    +0.034 A 
ATOM     17  C   LIG    1        8.979  -0.654   0.597  0.00  0.00    +0.023 A 
ATOM     18  C   LIG    1       10.268  -0.954   1.030  0.00  0.00    +0.005 A 
ATOM     19  C   LIG    1       10.504  -2.119   1.762  0.00  0.00    -0.047 A 
ATOM     20  C   LIG    1        9.448  -2.983   2.058  0.00  0.00    +0.005 A 
ATOM     21  C   LIG    1        8.158  -2.685   1.626  0.00  0.00    +0.023 A 
BRANCH  19  22
ATOM     22  C   LIG    1       11.911  -2.446   2.238  0.00  0.00    +0.035 C 
BRANCH  22  23
ATOM     23  C   LIG    1       12.194  -1.923   3.658  0.00  0.00    +0.004 C 
BRANCH  23  24
ATOM     24  C   LIG    1       13.619  -2.243   4.141  0.00  0.00    -0.003 C 
ATOM     25  C   LIG    1       13.898  -1.733   5.561  0.00  0.00    +0.004 C 
ENDBRANCH  23  24
ENDBRANCH  22  23
ENDBRANCH  19  22
ENDBRANCH  13  16
ENDBRANCH   7  12
ENDBRANCH   1   2
BRANCH   1  26
ATOM     26  C   LIG    1       -0.811  -1.431   0.121  0.00  0.00    +0.183 C 
ATOM     27  C   LIG    1       -2.332  -1.555  -0.101  0.00  0.00    +0.179 C 
ATOM     28  C   LIG    1       -2.926  -0.782   1.077  0.00  0.00    +0.195 C 
ATOM     29  C   LIG    1       -1.909  -1.140   2.154  0.00  0.00    +0.255 C 
ATOM     30  O   LIG    1       -0.670  -1.117   1.507  0.00  0.00    -0.345 OA
BRANCH  29  31
ATOM     31  N   LIG    1       -1.899  -0.310   3.351  0.00  0.00    -0.271 N 
ATOM     32  C   LIG    1       -2.471  -0.780   4.520  0.00  0.00    +0.331 A 
ATOM     33  O   LIG    1       -2.991  -1.884   4.687  0.00  0.00    -0.246 OA
ATOM     34  N   LIG    1       -2.434   0.122   5.555  0.00  0.00    -0.275 N 
ATOM     35  H   LIG    1       -2.840  -0.204   6.420  0.00  0.00    +0.173 HD
ATOM     36  C   LIG    1       -1.941   1.396   5.593  0.00  0.00    +0.254 A 
ATOM     37  O   LIG    1       -1.970   2.096   6.602  0.00  0.00    -0.268 OA
ATOM     38  C   LIG    1       -1.384   1.822   4.322  0.00  0.00    +0.088 A 
ATOM     39  C   LIG    1       -1.388   0.966   3.281  0.00  0.00    +0.098 A 
ENDBRANCH  29  31
BRANCH  27  40
ATOM     40  O   LIG    1       -2.758  -2.908  -0.155  0.00  0.00    -0.386 OA
ATOM     41  H   LIG    1       -2.223  -3.373  -0.803  0.00  0.00    +0.210 HD
ENDBRANCH  27  40
BRANCH  28  42
ATOM     42  O   LIG    1       -4.247  -1.094   1.482  0.00  0.00    -0.385 OA
ATOM     43  H   LIG    1       -4.314  -2.046   1.591  0.00  0.00    +0.210 HD
ENDBRANCH  28  42
ENDBRANCH   1  26
BRANCH   1  44
ATOM     44  O   LIG    1       -0.537   0.946  -0.292  0.00  0.00    -0.341 OA
BRANCH  44  45
ATOM     45  C   LIG    1       -1.361   1.667  -1.160  0.00  0.00    +0.282 C 
ATOM     46  C   LIG    1       -1.668   3.013  -0.515  0.00  0.00    +0.201 C 
ATOM     47  C   LIG    1       -2.019   3.825  -1.760  0.00  0.00    +0.175 C 
ATOM     48  C   LIG    1       -1.061   3.281  -2.833  0.00  0.00    +0.135 C 
ATOM     49  O   LIG    1       -0.707   1.987  -2.353  0.00  0.00    -0.345 OA
BRANCH  46  50
ATOM     50  O   LIG    1       -2.681   2.899   0.467  0.00  0.00    -0.384 OA
ATOM     51  H   LIG    1       -2.307   2.483   1.247  0.00  0.00    +0.210 HD
ENDBRANCH  46  50
BRANCH  47  52
ATOM     52  O   LIG    1       -3.374   3.706  -2.165  0.00  0.00    -0.387 OA
ATOM     53  H   LIG    1       -3.933   3.852  -1.397  0.00  0.00    +0.210 HD
ENDBRANCH  47  52
BRANCH  48  54
ATOM     54  C   LIG    1        0.259   4.058  -3.024  0.00  0.00    -0.052 C 
BRANCH  54  55
ATOM     55  N   LIG    1        0.011   5.391  -3.743  0.00  0.00    +0.380 N 
ATOM     56  H   LIG    1       -0.405   5.225  -4.649  0.00  0.00    -0.090 HD
ATOM     57  H   LIG    1       -0.614   5.969  -3.200  0.00  0.00    -0.090 HD
ATOM     58  H   LIG    1        0.883   5.885  -3.871  0.00  0.00    -0.090 HD
ENDBRANCH  54  55
ENDBRANCH  48  54
ENDBRANCH  44  45
ENDBRANCH   1  44
TORSDOF 16
