REMARK  Name = DB18076
REMARK                            x       y       z     vdW  Elec       q    Type
REMARK                         _______ _______ _______ _____ _____    ______ ____
ROOT
ATOM      1  C   LIG    1        1.349   0.066  -0.249  0.00  0.00    -0.035 A 
ATOM      2  C   LIG    1        2.120   0.657   0.755  0.00  0.00    +0.050 A 
ATOM      3  C   LIG    1        3.521   0.585   0.759  0.00  0.00    +0.128 A 
ATOM      4  C   LIG    1        4.182  -0.110  -0.273  0.00  0.00    +0.043 A 
ATOM      5  C   LIG    1        3.425  -0.710  -1.304  0.00  0.00    +0.128 A 
ATOM      6  C   LIG    1        2.024  -0.615  -1.270  0.00  0.00    +0.050 A 
ENDROOT
BRANCH   4   7
ATOM      7  C   LIG    1        5.729  -0.159  -0.240  0.00  0.00    +0.052 C 
ATOM      8  C   LIG    1        6.373   1.151  -0.838  0.00  0.00    +0.007 C 
ATOM      9  C   LIG    1        7.941   1.149  -0.837  0.00  0.00    -0.025 C 
ATOM     10  C   LIG    1        8.587   2.543  -1.081  0.00  0.00    +0.012 C 
ATOM     11  C   LIG    1        8.659   0.525   0.395  0.00  0.00    +0.012 C 
ATOM     12  C   LIG    1        7.808   0.263  -2.122  0.00  0.00    +0.023 C 
ATOM     13  C   LIG    1        7.435  -1.197  -1.767  0.00  0.00    -0.044 C 
ATOM     14  C   LIG    1        6.484   1.033  -2.382  0.00  0.00    +0.013 C 
ATOM     15  C   LIG    1        6.427  -1.375  -0.879  0.00  0.00    -0.017 C 
BRANCH  13  16
ATOM     16  C   LIG    1        8.168  -2.354  -2.424  0.00  0.00    +0.186 C 
BRANCH  16  17
ATOM     17  O   LIG    1        9.553  -2.228  -2.178  0.00  0.00    -0.391 OA
ATOM     18  H   LIG    1       10.008  -2.945  -2.625  0.00  0.00    +0.210 HD
ENDBRANCH  16  17
ENDBRANCH  13  16
ENDBRANCH   4   7
BRANCH   1  19
ATOM     19  C   LIG    1       -0.200   0.186  -0.204  0.00  0.00    -0.010 C 
ATOM     20  C   LIG    1       -0.601   1.680  -0.047  0.00  0.00    +0.016 C 
ATOM     21  C   LIG    1       -0.877  -0.312  -1.514  0.00  0.00    +0.016 C 
BRANCH  19  22
ATOM     22  C   LIG    1       -0.720  -0.653   1.006  0.00  0.00    +0.011 C 
BRANCH  22  23
ATOM     23  C   LIG    1       -2.246  -0.662   1.257  0.00  0.00    +0.001 C 
BRANCH  23  24
ATOM     24  C   LIG    1       -2.638  -1.484   2.498  0.00  0.00    +0.000 C 
BRANCH  24  25
ATOM     25  C   LIG    1       -4.156  -1.495   2.756  0.00  0.00    -0.000 C 
BRANCH  25  27
ATOM     26  C   LIG    1       -6.061  -2.320   4.258  0.00  0.00    +0.004 C 
ATOM     27  C   LIG    1       -4.548  -2.313   3.999  0.00  0.00    -0.003 C 
ENDBRANCH  25  27
ENDBRANCH  24  25
ENDBRANCH  23  24
ENDBRANCH  22  23
ENDBRANCH  19  22
ENDBRANCH   1  19
BRANCH   3  28
ATOM     28  O   LIG    1        4.298   1.180   1.740  0.00  0.00    -0.495 OA
ATOM     29  C   LIG    1        3.680   1.895   2.805  0.00  0.00    +0.277 C 
ENDBRANCH   3  28
BRANCH   5  30
ATOM     30  O   LIG    1        4.093  -1.369  -2.322  0.00  0.00    -0.495 OA
ATOM     31  C   LIG    1        3.370  -1.991  -3.380  0.00  0.00    +0.277 C 
ENDBRANCH   5  30
TORSDOF 11
