REMARK  Name = DB18190
REMARK                            x       y       z     vdW  Elec       q    Type
REMARK                         _______ _______ _______ _____ _____    ______ ____
ROOT
ATOM      1  C   UNK A  1       -3.974  -3.563   2.509  0.00  0.00    +0.169 C 
ATOM      2  N   UNK A  1       -2.861  -3.542   3.460  0.00  0.00    -0.302 N 
ATOM      3  H   UNK A  1       -2.205  -4.301   3.335  0.00  0.00    +0.150 HD
ATOM      4  C   UNK A  1       -2.615  -2.667   4.451  0.00  0.00    +0.237 C 
ATOM      5  O   UNK A  1       -1.638  -2.791   5.188  0.00  0.00    -0.274 OA
ATOM      6  C   UNK A  1       -3.577  -1.484   4.704  0.00  0.00    +0.187 C 
ATOM      7  N   UNK A  1       -2.780  -0.272   4.890  0.00  0.00    -0.300 N 
ATOM      8  H   UNK A  1       -2.044  -0.341   5.579  0.00  0.00    +0.150 HD
ATOM      9  C   UNK A  1       -2.901   0.854   4.171  0.00  0.00    +0.234 C 
ATOM     10  O   UNK A  1       -3.765   1.042   3.312  0.00  0.00    -0.274 OA
ATOM     11  C   UNK A  1       -1.881   1.960   4.486  0.00  0.00    +0.159 C 
ATOM     12  N   UNK A  1       -1.598   2.702   3.261  0.00  0.00    -0.302 N 
ATOM     13  H   UNK A  1       -2.326   2.668   2.561  0.00  0.00    +0.150 HD
ATOM     14  C   UNK A  1       -0.497   3.431   3.021  0.00  0.00    +0.234 C 
ATOM     15  O   UNK A  1        0.449   3.547   3.801  0.00  0.00    -0.274 OA
ATOM     16  C   UNK A  1       -0.490   4.177   1.678  0.00  0.00    +0.163 C 
ATOM     17  N   UNK A  1        0.875   4.327   1.165  0.00  0.00    -0.302 N 
ATOM     18  H   UNK A  1        1.579   4.441   1.880  0.00  0.00    +0.150 HD
ATOM     19  C   UNK A  1        1.267   4.346  -0.124  0.00  0.00    +0.234 C 
ATOM     20  O   UNK A  1        2.448   4.491  -0.435  0.00  0.00    -0.274 OA
ATOM     21  C   UNK A  1        0.221   4.143  -1.241  0.00  0.00    +0.163 C 
ATOM     22  N   UNK A  1        0.081   2.700  -1.465  0.00  0.00    -0.302 N 
ATOM     23  H   UNK A  1        0.941   2.177  -1.539  0.00  0.00    +0.150 HD
ATOM     24  C   UNK A  1       -1.093   2.043  -1.486  0.00  0.00    +0.235 C 
ATOM     25  O   UNK A  1       -2.184   2.612  -1.428  0.00  0.00    -0.274 OA
ATOM     26  C   UNK A  1       -1.042   0.499  -1.549  0.00  0.00    +0.169 C 
ATOM     27  C   UNK A  1       -2.374  -0.138  -1.076  0.00  0.00    +0.112 C 
ATOM     28  S   UNK A  1       -2.635  -1.903  -1.397  0.00  0.00    -0.091 S 
ATOM     29  S   UNK A  1       -2.213  -2.815   0.371  0.00  0.00    -0.091 S 
ATOM     30  C   UNK A  1       -3.722  -2.569   1.351  0.00  0.00    +0.112 C 
ENDROOT
BRANCH  26  31
ATOM     31  N   UNK A  1        0.104   0.001  -0.775  0.00  0.00    -0.302 N 
ATOM     32  H   UNK A  1        0.377   0.581   0.005  0.00  0.00    +0.150 HD
ATOM     33  C   UNK A  1        0.869  -1.059  -1.091  0.00  0.00    +0.234 C 
ATOM     34  O   UNK A  1        0.625  -1.846  -2.005  0.00  0.00    -0.274 OA
BRANCH  33  35
ATOM     35  C   UNK A  1        2.169  -1.209  -0.272  0.00  0.00    +0.163 C 
BRANCH  35  36
ATOM     36  N   UNK A  1        3.267  -0.456  -0.896  0.00  0.00    -0.305 N 
ATOM     37  H   UNK A  1        3.587   0.338  -0.363  0.00  0.00    +0.149 HD
ATOM     38  C   UNK A  0        3.858  -0.710  -2.084  0.00  0.00    +0.197 C 
ATOM     39  O   UNK A  0        3.562  -1.673  -2.788  0.00  0.00    -0.278 OA
BRANCH  38  40
ATOM     40  C   UNK A  0        4.970   0.240  -2.567  0.00  0.00    +0.019 C 
BRANCH  40  41
ATOM     41  N   UNK A  0        4.609   1.686  -2.345  0.00  0.00    +0.387 N 
ATOM     42  H   UNK A  0        4.292   1.704  -1.387  0.00  0.00    -0.081 HD
ATOM     43  C   UNK A  0        5.821   2.661  -2.285  0.00  0.00    -0.063 C 
ATOM     44  C   UNK A  0        6.838   2.623  -3.469  0.00  0.00    +0.066 C 
ATOM     45  N   UNK A  0        7.571   1.368  -3.712  0.00  0.00    -0.296 NA
ATOM     46  C   UNK A  0        8.390   1.477  -4.937  0.00  0.00    +0.066 C 
ATOM     47  C   UNK A  0        7.602   1.570  -6.268  0.00  0.00    -0.062 C 
ATOM     48  N   UNK A  0        6.540   0.449  -6.413  0.00  0.00    +0.388 N 
ATOM     49  H   UNK A  0        6.113   0.325  -5.505  0.00  0.00    -0.081 HD
ATOM     50  C   UNK A  0        5.409   0.852  -7.398  0.00  0.00    -0.062 C 
ATOM     51  C   UNK A  0        4.444   1.893  -6.773  0.00  0.00    +0.066 C 
ATOM     52  N   UNK A  0        3.919   1.467  -5.467  0.00  0.00    -0.296 NA
ATOM     53  C   UNK A  0        3.576   2.599  -4.597  0.00  0.00    +0.066 C 
ATOM     54  C   UNK A  0        3.364   2.227  -3.109  0.00  0.00    -0.063 C 
BRANCH  52  55
ATOM     55  C   UNK A  0        2.893   0.398  -5.558  0.00  0.00    +0.205 C 
BRANCH  55  56
ATOM     56  C   UNK A  0        1.451   0.858  -5.897  0.00  0.00    +0.319 C 
ATOM     57  O   UNK A  0        1.218   1.294  -7.046  0.00  0.00    -0.250 OA
BRANCH  56  58
ATOM     58  O   UNK A  0        0.595   0.754  -4.989  0.00  0.00    -0.480 OA
ATOM     59  H   UNK A  0       -0.289   1.019  -5.147  0.00  0.00    +0.295 HD
ENDBRANCH  56  58
ENDBRANCH  55  56
ENDBRANCH  52  55
BRANCH  48  60
ATOM     60  C   UNK A  0        7.188  -0.918  -6.781  0.00  0.00    +0.044 C 
BRANCH  60  61
ATOM     61  C   UNK A  0        6.351  -2.113  -6.263  0.00  0.00    +0.288 C 
ATOM     62  O   UNK A  0        6.770  -3.242  -6.601  0.00  0.00    -0.253 OA
BRANCH  61  63
ATOM     63  O   UNK A  0        5.341  -1.931  -5.544  0.00  0.00    -0.482 OA
ATOM     64  H   UNK A  0        4.844  -2.665  -5.238  0.00  0.00    +0.295 HD
ENDBRANCH  61  63
ENDBRANCH  60  61
ENDBRANCH  48  60
BRANCH  45  65
ATOM     65  C   UNK A  0        8.449   1.035  -2.566  0.00  0.00    +0.205 C 
BRANCH  65  66
ATOM     66  C   UNK A  0        8.948  -0.435  -2.513  0.00  0.00    +0.319 C 
ATOM     67  O   UNK A  0        9.907  -0.652  -1.739  0.00  0.00    -0.250 OA
BRANCH  66  68
ATOM     68  O   UNK A  0        8.373  -1.324  -3.184  0.00  0.00    -0.480 OA
ATOM     69  H   UNK A  0        8.679  -2.209  -3.148  0.00  0.00    +0.295 HD
ENDBRANCH  66  68
ENDBRANCH  65  66
ENDBRANCH  45  65
ENDBRANCH  40  41
ENDBRANCH  38  40
ENDBRANCH  35  36
BRANCH  35  70
ATOM     70  C   UNK A  1        2.609  -2.674  -0.006  0.00  0.00    +0.067 C 
BRANCH  70  71
ATOM     71  C   UNK A  1        1.673  -3.537   0.820  0.00  0.00    -0.045 A 
ATOM     72  C   UNK A  1        0.933  -4.576   0.217  0.00  0.00    +0.004 A 
ATOM     73  C   UNK A  1        0.099  -5.372   0.992  0.00  0.00    +0.000 A 
ATOM     74  C   UNK A  1       -0.028  -5.132   2.355  0.00  0.00    +0.000 A 
ATOM     75  C   UNK A  1        0.664  -4.086   2.953  0.00  0.00    +0.000 A 
ATOM     76  C   UNK A  1        1.505  -3.282   2.197  0.00  0.00    +0.004 A 
ENDBRANCH  70  71
ENDBRANCH  35  70
ENDBRANCH  33  35
ENDBRANCH  26  31
BRANCH   1  79
ATOM     77  N   UNK A  1       -5.445  -5.249   1.541  0.00  0.00    -0.306 N 
ATOM     78  H   UNK A  1       -6.123  -4.502   1.545  0.00  0.00    +0.149 HD
ATOM     79  C   UNK A  1       -4.205  -4.992   1.993  0.00  0.00    +0.235 C 
ATOM     80  O   UNK A  1       -3.286  -5.813   1.999  0.00  0.00    -0.274 OA
BRANCH  77  81
ATOM     81  C   UNK A  1       -5.903  -6.533   0.983  0.00  0.00    +0.126 C 
BRANCH  81  83
ATOM     82  C   UNK A  1       -6.782  -8.912   1.557  0.00  0.00    +0.039 C 
ATOM     83  C   UNK A  1       -6.479  -7.491   2.072  0.00  0.00    +0.134 C 
BRANCH  83  84
ATOM     84  O   UNK A  1       -5.598  -7.634   3.172  0.00  0.00    -0.390 OA
ATOM     85  H   UNK A  1       -4.756  -7.963   2.847  0.00  0.00    +0.210 HD
ENDBRANCH  83  84
ENDBRANCH  81  83
BRANCH  81  86
ATOM     86  C   UNK A  1       -6.923  -6.291  -0.161  0.00  0.00    +0.180 C 
BRANCH  86  87
ATOM     87  O   UNK A  1       -6.472  -5.335  -1.104  0.00  0.00    -0.393 OA
ATOM     88  H   UNK A  1       -7.136  -5.247  -1.793  0.00  0.00    +0.209 HD
ENDBRANCH  86  87
ENDBRANCH  81  86
ENDBRANCH  77  81
ENDBRANCH   1  79
BRANCH   6  89
ATOM     89  C   UNK A  1       -4.439  -1.791   5.961  0.00  0.00    +0.141 C 
ATOM     90  C   UNK A  1       -5.562  -0.763   6.174  0.00  0.00    +0.040 C 
BRANCH  89  91
ATOM     91  O   UNK A  1       -5.043  -3.072   5.910  0.00  0.00    -0.390 OA
ATOM     92  H   UNK A  1       -4.351  -3.738   5.907  0.00  0.00    +0.210 HD
ENDBRANCH  89  91
ENDBRANCH   6  89
BRANCH  11  93
ATOM     93  C   UNK A  1       -2.381   2.941   5.572  0.00  0.00    +0.032 C 
BRANCH  93  94
ATOM     94  C   UNK A  1       -2.608   2.325   6.964  0.00  0.00    +0.000 C 
BRANCH  94  95
ATOM     95  C   UNK A  1       -3.066   3.371   7.990  0.00  0.00    -0.019 C 
BRANCH  95  96
ATOM     96  C   UNK A  1       -3.297   2.765   9.383  0.00  0.00    -0.086 C 
BRANCH  96  97
ATOM     97  N   UNK A  1       -3.751   3.779  10.350  0.00  0.00    +0.378 N 
ATOM     98  H   UNK A  1       -3.054   4.506  10.430  0.00  0.00    -0.090 HD
ATOM     99  H   UNK A  1       -4.622   4.183  10.033  0.00  0.00    -0.090 HD
ATOM    100  H   UNK A  1       -3.891   3.347  11.252  0.00  0.00    -0.090 HD
ENDBRANCH  96  97
ENDBRANCH  95  96
ENDBRANCH  94  95
ENDBRANCH  93  94
ENDBRANCH  11  93
BRANCH  16 101
ATOM    101  C   UNK A  1       -1.158   5.568   1.772  0.00  0.00    +0.069 C 
BRANCH 101 102
ATOM    102  C   UNK A  1       -2.594   5.580   2.206  0.00  0.00    -0.020 A 
ATOM    103  C   UNK A  1       -3.154   5.891   3.519  0.00  0.00    +0.003 A 
ATOM    104  C   UNK A  1       -2.613   6.320   4.755  0.00  0.00    +0.010 A 
ATOM    105  C   UNK A  1       -3.436   6.526   5.881  0.00  0.00    +0.001 A 
ATOM    106  C   UNK A  1       -4.825   6.309   5.798  0.00  0.00    +0.002 A 
ATOM    107  C   UNK A  1       -5.397   5.886   4.585  0.00  0.00    +0.026 A 
ATOM    108  C   UNK A  1       -4.566   5.683   3.468  0.00  0.00    +0.047 A 
ATOM    109  N   UNK A  1       -4.805   5.273   2.173  0.00  0.00    -0.360 N 
ATOM    110  H   UNK A  1       -5.707   5.037   1.786  0.00  0.00    +0.165 HD
ATOM    111  C   UNK A  1       -3.642   5.210   1.434  0.00  0.00    +0.087 A 
ENDBRANCH 101 102
ENDBRANCH  16 101
BRANCH  21 112
ATOM    112  C   UNK A  1        0.548   4.941  -2.533  0.00  0.00    +0.067 C 
BRANCH 112 113
ATOM    113  C   UNK A  1       -0.594   4.884  -3.553  0.00  0.00    -0.037 A 
ATOM    114  C   UNK A  1       -1.811   5.616  -3.349  0.00  0.00    -0.015 A 
ATOM    115  C   UNK A  1       -2.027   6.489  -2.243  0.00  0.00    +0.009 A 
ATOM    116  C   UNK A  1       -3.237   7.157  -2.084  0.00  0.00    +0.001 A 
ATOM    117  C   UNK A  1       -4.260   6.995  -3.010  0.00  0.00    +0.001 A 
ATOM    118  C   UNK A  1       -4.087   6.166  -4.113  0.00  0.00    +0.008 A 
ATOM    119  C   UNK A  1       -2.868   5.468  -4.304  0.00  0.00    -0.018 A 
ATOM    120  C   UNK A  1       -2.681   4.625  -5.427  0.00  0.00    +0.008 A 
ATOM    121  C   UNK A  1       -1.482   3.947  -5.607  0.00  0.00    +0.001 A 
ATOM    122  C   UNK A  1       -0.454   4.078  -4.684  0.00  0.00    +0.004 A 
ENDBRANCH 112 113
ENDBRANCH  21 112
TORSDOF 33
