REMARK  Name = DB18052
REMARK                            x       y       z     vdW  Elec       q    Type
REMARK                         _______ _______ _______ _____ _____    ______ ____
ROOT
ATOM      1  C   LIG    1       -2.506  -0.137  -0.226  0.00  0.00    +0.058 A 
ATOM      2  C   LIG    1       -1.921   1.152  -0.391  0.00  0.00    +0.057 A 
ATOM      3  C   LIG    1       -2.749   2.346  -0.858  0.00  0.00    +0.196 C 
ATOM      4  O   LIG    1       -3.876   2.234  -1.348  0.00  0.00    -0.287 OA
ATOM      5  C   LIG    1       -2.202   3.703  -0.543  0.00  0.00    +0.033 A 
ATOM      6  C   LIG    1       -3.053   4.821  -0.539  0.00  0.00    +0.012 A 
ATOM      7  C   LIG    1       -2.565   6.091  -0.243  0.00  0.00    +0.001 A 
ATOM      8  C   LIG    1       -1.218   6.264   0.055  0.00  0.00    +0.001 A 
ATOM      9  C   LIG    1       -0.361   5.166   0.054  0.00  0.00    +0.012 A 
ATOM     10  C   LIG    1       -0.837   3.878  -0.244  0.00  0.00    +0.033 A 
ATOM     11  C   LIG    1        0.100   2.712  -0.237  0.00  0.00    +0.196 C 
ATOM     12  O   LIG    1        1.319   2.902  -0.207  0.00  0.00    -0.287 OA
ATOM     13  C   LIG    1       -0.534   1.331  -0.094  0.00  0.00    +0.056 A 
ATOM     14  C   LIG    1        0.223   0.219   0.361  0.00  0.00    +0.045 A 
ATOM     15  C   LIG    1       -0.378  -1.034   0.444  0.00  0.00    +0.049 A 
ATOM     16  C   LIG    1       -1.728  -1.241   0.179  0.00  0.00    +0.053 A 
ENDROOT
BRANCH  16  17
ATOM     17  N   LIG    1       -2.247  -2.537   0.268  0.00  0.00    -0.332 N 
ATOM     18  C   LIG    1       -1.713  -3.514   1.235  0.00  0.00    +0.086 C 
ATOM     19  C   LIG    1       -2.676  -4.689   1.510  0.00  0.00    -0.059 C 
ATOM     20  N   LIG    1       -2.955  -5.466   0.203  0.00  0.00    +0.384 N 
ATOM     21  H   LIG    1       -3.666  -6.154   0.409  0.00  0.00    -0.081 HD
ATOM     22  C   LIG    1       -3.572  -4.444  -0.783  0.00  0.00    -0.059 C 
ATOM     23  C   LIG    1       -2.644  -3.219  -0.979  0.00  0.00    +0.086 C 
BRANCH  20  24
ATOM     24  C   LIG    1       -1.748  -6.254  -0.403  0.00  0.00    -0.068 C 
ATOM     25  C   LIG    1       -0.922  -6.974   0.702  0.00  0.00    -0.015 C 
ATOM     26  C   LIG    1        0.152  -7.925   0.141  0.00  0.00    -0.002 C 
ATOM     27  C   LIG    1       -0.430  -8.930  -0.867  0.00  0.00    -0.000 C 
ATOM     28  C   LIG    1       -1.200  -8.220  -1.993  0.00  0.00    -0.002 C 
ATOM     29  C   LIG    1       -2.286  -7.273  -1.447  0.00  0.00    -0.015 C 
ENDBRANCH  20  24
ENDBRANCH  16  17
BRANCH   1  30
ATOM     30  N   LIG    1       -3.885  -0.347  -0.411  0.00  0.00    -0.356 N 
ATOM     31  H   LIG    1       -4.275  -1.263  -0.241  0.00  0.00    +0.142 HD
ATOM     32  H   LIG    1       -4.471   0.431  -0.682  0.00  0.00    +0.142 HD
ENDBRANCH   1  30
BRANCH  14  33
ATOM     33  N   LIG    1        1.594   0.315   0.693  0.00  0.00    -0.314 N 
ATOM     34  H   LIG    1        2.059   1.105   0.269  0.00  0.00    +0.152 HD
BRANCH  33  35
ATOM     35  C   LIG    1        2.430  -0.440   1.536  0.00  0.00    +0.031 A 
ATOM     36  C   LIG    1        1.938  -1.249   2.565  0.00  0.00    +0.024 A 
ATOM     37  C   LIG    1        2.814  -1.967   3.373  0.00  0.00    +0.017 A 
ATOM     38  C   LIG    1        4.208  -1.890   3.189  0.00  0.00    +0.059 A 
ATOM     39  C   LIG    1        4.684  -1.049   2.165  0.00  0.00    +0.017 A 
ATOM     40  C   LIG    1        3.807  -0.330   1.356  0.00  0.00    +0.024 A 
BRANCH  38  41
ATOM     41  C   LIG    1        5.160  -2.680   4.065  0.00  0.00    +0.337 C 
ATOM     42  O   LIG    1        4.686  -3.417   4.963  0.00  0.00    -0.245 OA
BRANCH  41  43
ATOM     43  O   LIG    1        6.394  -2.576   3.865  0.00  0.00    -0.477 OA
ATOM     44  H   LIG    1        6.998  -3.056   4.396  0.00  0.00    +0.295 HD
ENDBRANCH  41  43
ENDBRANCH  38  41
ENDBRANCH  33  35
ENDBRANCH  14  33
TORSDOF 7
