REMARK  Name = DB18657
REMARK                            x       y       z     vdW  Elec       q    Type
REMARK                         _______ _______ _______ _____ _____    ______ ____
ROOT
ATOM      1  F   LIG    1       -3.880   0.766  -0.531  0.00  0.00    -0.205 F 
ATOM      2  C   LIG    1       -2.554   0.502  -0.439  0.00  0.00    +0.135 A 
ATOM      3  C   LIG    1       -2.088  -0.811  -0.269  0.00  0.00    +0.072 A 
ATOM      4  C   LIG    1       -0.710  -1.038  -0.170  0.00  0.00    +0.020 A 
ATOM      5  C   LIG    1        0.198   0.024  -0.203  0.00  0.00    -0.041 A 
ATOM      6  C   LIG    1       -0.280   1.326  -0.379  0.00  0.00    +0.007 A 
ATOM      7  C   LIG    1       -1.649   1.562  -0.501  0.00  0.00    +0.039 A 
ENDROOT
BRANCH   3   8
ATOM      8  C   LIG    1       -3.053  -1.964  -0.142  0.00  0.00    +0.249 C 
ATOM      9  N   LIG    1       -3.029  -2.713   0.997  0.00  0.00    -0.294 N 
ATOM     10  C   LIG    1       -3.840  -3.953   1.069  0.00  0.00    +0.127 C 
ATOM     11  C   LIG    1       -4.524  -4.003   2.455  0.00  0.00    +0.127 C 
ATOM     12  N   LIG    1       -3.470  -4.040   3.497  0.00  0.00    -0.295 N 
ATOM     13  C   LIG    1       -3.494  -4.995   4.468  0.00  0.00    +0.247 C 
ATOM     14  O   LIG    1       -2.466  -5.547   4.871  0.00  0.00    -0.270 OA
ATOM     15  C   LIG    1       -2.176  -3.386   3.201  0.00  0.00    +0.127 C 
ATOM     16  C   LIG    1       -2.447  -2.187   2.259  0.00  0.00    +0.127 C 
ATOM     17  O   LIG    1       -3.801  -2.199  -1.094  0.00  0.00    -0.270 OA
BRANCH  13  18
ATOM     18  C   LIG    1       -4.822  -5.375   5.096  0.00  0.00    +0.037 A 
ATOM     19  C   LIG    1       -5.885  -4.460   5.181  0.00  0.00    +0.016 A 
ATOM     20  C   LIG    1       -7.087  -4.826   5.781  0.00  0.00    +0.039 A 
ATOM     21  C   LIG    1       -7.235  -6.105   6.309  0.00  0.00    +0.123 A 
ATOM     22  F   LIG    1       -8.403  -6.459   6.892  0.00  0.00    -0.205 F 
ATOM     23  C   LIG    1       -6.187  -7.019   6.248  0.00  0.00    +0.039 A 
ATOM     24  C   LIG    1       -4.984  -6.653   5.650  0.00  0.00    +0.016 A 
ENDBRANCH  13  18
ENDBRANCH   3   8
BRANCH   5  25
ATOM     25  C   LIG    1        1.691  -0.229  -0.017  0.00  0.00    +0.093 C 
BRANCH  25  26
ATOM     26  C   LIG    1        2.116  -0.181   1.454  0.00  0.00    +0.074 A 
ATOM     27  C   LIG    1        1.874  -1.326   2.364  0.00  0.00    +0.011 A 
ATOM     28  C   LIG    1        1.582  -2.626   1.930  0.00  0.00    +0.010 A 
ATOM     29  C   LIG    1        1.344  -3.642   2.856  0.00  0.00    +0.001 A 
ATOM     30  C   LIG    1        1.415  -3.377   4.222  0.00  0.00    +0.001 A 
ATOM     31  C   LIG    1        1.757  -2.102   4.672  0.00  0.00    +0.014 A 
ATOM     32  C   LIG    1        2.013  -1.080   3.749  0.00  0.00    +0.050 A 
ATOM     33  C   LIG    1        2.479   0.275   4.261  0.00  0.00    +0.272 A 
ATOM     34  O   LIG    1        2.625   0.598   5.439  0.00  0.00    -0.266 OA
ATOM     35  N   LIG    1        2.752   1.129   3.232  0.00  0.00    -0.242 N 
ATOM     36  H   LIG    1        3.107   2.042   3.478  0.00  0.00    +0.192 HD
ATOM     37  N   LIG    1        2.583   0.939   1.872  0.00  0.00    -0.175 NA
ENDBRANCH  25  26
ENDBRANCH   5  25
TORSDOF 4
