REMARK  Name = DB18711
REMARK                            x       y       z     vdW  Elec       q    Type
REMARK                         _______ _______ _______ _____ _____    ______ ____
ROOT
ATOM      1  C   LIG    1        5.659  -0.096   0.061  0.00  0.00    +0.093 A 
ATOM      2  N   LIG    1        6.434  -1.089  -0.510  0.00  0.00    -0.211 N 
ATOM      3  N   LIG    1        6.026  -2.157  -1.218  0.00  0.00    -0.150 NA
ATOM      4  C   LIG    1        7.012  -2.963  -1.699  0.00  0.00    +0.140 A 
ATOM      5  C   LIG    1        8.368  -2.721  -1.466  0.00  0.00    +0.049 A 
ATOM      6  C   LIG    1        8.765  -1.605  -0.726  0.00  0.00    +0.051 A 
ATOM      7  C   LIG    1        7.769  -0.746  -0.233  0.00  0.00    +0.155 A 
ATOM      8  N   LIG    1        7.851   0.400   0.483  0.00  0.00    -0.234 NA
ATOM      9  C   LIG    1        6.598   0.767   0.637  0.00  0.00    +0.141 A 
ENDROOT
BRANCH   1  13
ATOM     10  C   LIG    1        1.364   0.236   0.038  0.00  0.00    +0.120 A 
ATOM     11  C   LIG    1        1.963  -1.022  -0.010  0.00  0.00    +0.046 A 
ATOM     12  C   LIG    1        3.349  -1.147  -0.001  0.00  0.00    +0.013 A 
ATOM     13  C   LIG    1        4.162  -0.010   0.047  0.00  0.00    +0.002 A 
ATOM     14  C   LIG    1        3.563   1.252   0.109  0.00  0.00    +0.013 A 
ATOM     15  C   LIG    1        2.177   1.378   0.100  0.00  0.00    +0.046 A 
BRANCH  10  16
ATOM     16  O   LIG    1       -0.018   0.261   0.024  0.00  0.00    -0.494 OA
BRANCH  16  17
ATOM     17  C   LIG    1       -0.698   1.512   0.086  0.00  0.00    +0.212 C 
BRANCH  17  19
ATOM     18  C   LIG    1       -2.724   0.518   1.348  0.00  0.00    -0.011 C 
ATOM     19  C   LIG    1       -2.217   1.248   0.089  0.00  0.00    -0.040 C 
BRANCH  19  20
ATOM     20  N   LIG    1       -2.966   2.581  -0.058  0.00  0.00    +0.382 N 
ATOM     21  H   LIG    1       -2.674   3.053  -0.902  0.00  0.00    -0.090 HD
ATOM     22  H   LIG    1       -3.962   2.419  -0.104  0.00  0.00    -0.090 HD
ATOM     23  H   LIG    1       -2.770   3.179   0.733  0.00  0.00    -0.090 HD
ENDBRANCH  19  20
ENDBRANCH  17  19
ENDBRANCH  16  17
ENDBRANCH  10  16
ENDBRANCH   1  13
BRANCH   4  24
ATOM     24  N   LIG    1        6.679  -4.092  -2.470  0.00  0.00    -0.321 N 
ATOM     25  H   LIG    1        7.398  -4.792  -2.583  0.00  0.00    +0.148 HD
BRANCH  24  26
ATOM     26  C   LIG    1        5.306  -4.503  -2.788  0.00  0.00    +0.099 C 
ATOM     27  C   LIG    1        5.290  -5.798  -3.616  0.00  0.00    +0.033 C 
BRANCH  26  28
ATOM     28  C   LIG    1        4.493  -3.396  -3.471  0.00  0.00    -0.025 A 
ATOM     29  C   LIG    1        4.981  -2.736  -4.607  0.00  0.00    +0.043 A 
ATOM     30  C   LIG    1        4.236  -1.722  -5.208  0.00  0.00    +0.124 A 
ATOM     31  F   LIG    1        4.720  -1.082  -6.297  0.00  0.00    -0.205 F 
ATOM     32  C   LIG    1        2.993  -1.366  -4.686  0.00  0.00    +0.038 A 
ATOM     33  C   LIG    1        2.492  -2.029  -3.565  0.00  0.00    +0.003 A 
ATOM     34  C   LIG    1        3.237  -3.044  -2.964  0.00  0.00    +0.005 A 
ENDBRANCH  26  28
ENDBRANCH  24  26
ENDBRANCH   4  24
TORSDOF 8
