REMARK  Name = DB18463
REMARK                            x       y       z     vdW  Elec       q    Type
REMARK                         _______ _______ _______ _____ _____    ______ ____
ROOT
ATOM      1  C   LIG    1        1.852   0.750   0.718  0.00  0.00    +0.220 A 
ATOM      2  N   LIG    1        2.304  -0.452   1.150  0.00  0.00    -0.219 NA
ATOM      3  C   LIG    1        3.653  -0.628   1.244  0.00  0.00    +0.058 A 
ATOM      4  C   LIG    1        4.559   0.392   0.882  0.00  0.00    +0.094 A 
ATOM      5  C   LIG    1        3.987   1.593   0.437  0.00  0.00    +0.128 A 
ATOM      6  N   LIG    1        2.647   1.789   0.350  0.00  0.00    -0.222 NA
ENDROOT
BRANCH   4   7
ATOM      7  C   LIG    1        6.080   0.226   0.940  0.00  0.00    +0.420 C 
ATOM      8  F   LIG    1        6.720   1.262   0.394  0.00  0.00    -0.166 F 
ATOM      9  F   LIG    1        6.453  -0.871   0.281  0.00  0.00    -0.166 F 
ATOM     10  F   LIG    1        6.471   0.126   2.211  0.00  0.00    -0.166 F 
ENDBRANCH   4   7
BRANCH   1  11
ATOM     11  N   LIG    1        0.457   0.871   0.634  0.00  0.00    -0.281 N 
ATOM     12  H   LIG    1       -0.041   0.024   0.865  0.00  0.00    +0.155 HD
BRANCH  11  14
ATOM     13  C   LIG    1       -1.616   1.748  -0.272  0.00  0.00    +0.141 A 
ATOM     14  C   LIG    1       -0.379   1.971   0.359  0.00  0.00    +0.076 A 
ATOM     15  C   LIG    1       -0.019   3.270   0.739  0.00  0.00    +0.027 A 
ATOM     16  C   LIG    1       -0.863   4.346   0.482  0.00  0.00    +0.006 A 
ATOM     17  C   LIG    1       -2.090   4.145  -0.154  0.00  0.00    -0.041 A 
ATOM     18  C   LIG    1       -2.458   2.847  -0.523  0.00  0.00    +0.051 A 
BRANCH  17  19
ATOM     19  C   LIG    1       -3.023   5.328  -0.428  0.00  0.00    +0.016 C 
ATOM     20  C   LIG    1       -3.300   5.522  -1.937  0.00  0.00    -0.011 C 
ATOM     21  C   LIG    1       -4.244   6.709  -2.203  0.00  0.00    -0.079 C 
ATOM     22  N   LIG    1       -5.548   6.503  -1.401  0.00  0.00    +0.378 N 
ATOM     23  H   LIG    1       -5.963   5.629  -1.693  0.00  0.00    -0.082 HD
ATOM     24  C   LIG    1       -6.536   7.648  -1.696  0.00  0.00    -0.096 C 
ATOM     25  C   LIG    1       -5.273   6.421   0.117  0.00  0.00    -0.079 C 
ATOM     26  C   LIG    1       -4.329   5.237   0.394  0.00  0.00    -0.011 C 
ENDBRANCH  17  19
BRANCH  13  28
ATOM     27  C   LIG    1       -3.178   0.177  -1.269  0.00  0.00    +0.277 C 
ATOM     28  O   LIG    1       -1.942   0.446  -0.615  0.00  0.00    -0.493 OA
ENDBRANCH  13  28
ENDBRANCH  11  14
ENDBRANCH   1  11
BRANCH   3  29
ATOM     29  C   LIG    1        4.101  -2.003   1.752  0.00  0.00    +0.061 C 
BRANCH  29  30
ATOM     30  C   LIG    1        3.209  -2.615   2.855  0.00  0.00    +0.041 C 
BRANCH  30  31
ATOM     31  C   LIG    1        3.780  -3.914   3.422  0.00  0.00    -0.043 A 
ATOM     32  C   LIG    1        4.698  -3.930   4.494  0.00  0.00    -0.035 A 
ATOM     33  C   LIG    1        5.195  -5.158   4.950  0.00  0.00    +0.004 A 
ATOM     34  C   LIG    1        4.795  -6.354   4.356  0.00  0.00    +0.000 A 
ATOM     35  C   LIG    1        3.892  -6.336   3.297  0.00  0.00    +0.000 A 
ATOM     36  C   LIG    1        3.389  -5.122   2.833  0.00  0.00    +0.004 A 
BRANCH  32  37
ATOM     37  C   LIG    1        5.165  -2.651   5.198  0.00  0.00    +0.131 C 
BRANCH  37  38
ATOM     38  C   LIG    1        4.147  -2.111   6.216  0.00  0.00    +0.215 C 
ATOM     39  O   LIG    1        3.498  -2.871   6.933  0.00  0.00    -0.276 OA
ATOM     40  N   LIG    1        4.020  -0.785   6.301  0.00  0.00    -0.329 N 
ATOM     41  H   LIG    1        3.371  -0.381   6.960  0.00  0.00    +0.145 HD
ATOM     42  H   LIG    1        4.570  -0.178   5.710  0.00  0.00    +0.145 HD
ENDBRANCH  37  38
ENDBRANCH  32  37
ENDBRANCH  30  31
ENDBRANCH  29  30
ENDBRANCH   3  29
TORSDOF 10
