REMARK  Name = DB18083
REMARK                            x       y       z     vdW  Elec       q    Type
REMARK                         _______ _______ _______ _____ _____    ______ ____
ROOT
ATOM      1  C   LIG    1        1.284  -0.186   0.015  0.00  0.00    +0.158 A 
ATOM      2  N   LIG    1        2.003   0.712  -0.620  0.00  0.00    -0.222 NA
ATOM      3  C   LIG    1        3.281   0.387  -0.448  0.00  0.00    +0.144 A 
ATOM      4  C   LIG    1        3.371  -0.749   0.362  0.00  0.00    +0.117 A 
ATOM      5  N   LIG    1        2.082  -1.103   0.645  0.00  0.00    -0.342 N 
ATOM      6  H   LIG    1        1.777  -1.876   1.220  0.00  0.00    +0.167 HD
ENDROOT
BRANCH   1   8
ATOM      7  N   LIG    1       -1.009  -1.257   0.113  0.00  0.00    -0.325 N 
ATOM      8  C   LIG    1       -0.179  -0.148   0.117  0.00  0.00    +0.112 A 
ATOM      9  C   LIG    1       -1.047   0.951   0.231  0.00  0.00    +0.100 A 
ATOM     10  N   LIG    1       -2.311   0.562   0.291  0.00  0.00    -0.235 NA
ATOM     11  C   LIG    1       -2.276  -0.742   0.241  0.00  0.00    +0.200 A 
BRANCH   9  12
ATOM     12  C   LIG    1       -0.707   2.406   0.302  0.00  0.00    +0.003 A 
ATOM     13  C   LIG    1        0.354   2.840   1.104  0.00  0.00    +0.013 A 
ATOM     14  C   LIG    1        0.679   4.193   1.165  0.00  0.00    +0.039 A 
ATOM     15  C   LIG    1       -0.062   5.115   0.429  0.00  0.00    +0.123 A 
ATOM     16  F   LIG    1        0.255   6.428   0.486  0.00  0.00    -0.205 F 
ATOM     17  C   LIG    1       -1.126   4.694  -0.365  0.00  0.00    +0.039 A 
ATOM     18  C   LIG    1       -1.450   3.341  -0.427  0.00  0.00    +0.013 A 
ENDBRANCH   9  12
BRANCH   7  20
ATOM     19  C   LIG    1       -1.572  -3.425  -0.972  0.00  0.00    +0.030 C 
ATOM     20  C   LIG    1       -0.646  -2.679   0.010  0.00  0.00    +0.083 C 
ATOM     21  C   LIG    1       -0.635  -3.313   1.413  0.00  0.00    +0.030 C 
ENDBRANCH   7  20
ENDBRANCH   1   8
BRANCH   3  22
ATOM     22  C   LIG    1        4.382   1.183  -0.936  0.00  0.00    +0.268 C 
ATOM     23  N   LIG    1        5.540   0.496  -1.072  0.00  0.00    -0.280 N 
ATOM     24  H   LIG    1        5.498  -0.497  -0.898  0.00  0.00    +0.155 HD
ATOM     25  O   LIG    1        4.228   2.377  -1.201  0.00  0.00    -0.268 OA
BRANCH  23  26
ATOM     26  C   LIG    1        6.798   0.979  -1.474  0.00  0.00    +0.034 A 
ATOM     27  C   LIG    1        7.691   0.041  -1.991  0.00  0.00    +0.025 A 
ATOM     28  C   LIG    1        8.962   0.434  -2.400  0.00  0.00    +0.025 A 
ATOM     29  C   LIG    1        9.372   1.772  -2.295  0.00  0.00    +0.030 A 
ATOM     30  C   LIG    1        8.475   2.700  -1.748  0.00  0.00    +0.025 A 
ATOM     31  C   LIG    1        7.202   2.314  -1.341  0.00  0.00    +0.025 A 
BRANCH  29  32
ATOM     32  N   LIG    1       10.642   2.193  -2.693  0.00  0.00    -0.333 N 
ATOM     33  C   LIG    1       10.783   3.364  -3.581  0.00  0.00    +0.086 C 
ATOM     34  C   LIG    1       10.721   2.997  -5.081  0.00  0.00    -0.060 C 
ATOM     35  N   LIG    1       11.878   2.029  -5.397  0.00  0.00    +0.380 N 
ATOM     36  H   LIG    1       12.750   2.491  -5.179  0.00  0.00    -0.082 HD
ATOM     37  C   LIG    1       11.865   1.626  -6.884  0.00  0.00    -0.096 C 
ATOM     38  C   LIG    1       11.739   0.789  -4.492  0.00  0.00    -0.060 C 
ATOM     39  C   LIG    1       11.733   1.252  -3.015  0.00  0.00    +0.086 C 
ENDBRANCH  29  32
ENDBRANCH  23  26
ENDBRANCH   3  22
TORSDOF 6
