REMARK  Name = DB18542
REMARK                            x       y       z     vdW  Elec       q    Type
REMARK                         _______ _______ _______ _____ _____    ______ ____
ROOT
ATOM      1  C   LIG    1        1.561   0.276  -0.784  0.00  0.00    +0.184 C 
ATOM      2  C   LIG    1        2.483   1.089  -1.728  0.00  0.00    +0.180 C 
ATOM      3  C   LIG    1        3.963   1.011  -1.279  0.00  0.00    +0.214 C 
ATOM      4  C   LIG    1        4.064   1.356   0.215  0.00  0.00    +0.339 C 
ATOM      5  O   LIG    1        3.296   0.434   0.944  0.00  0.00    -0.331 OA
ATOM      6  C   LIG    1        1.888   0.552   0.713  0.00  0.00    +0.179 C 
ENDROOT
BRANCH   2   7
ATOM      7  O   LIG    1        2.328   0.660  -3.069  0.00  0.00    -0.386 OA
ATOM      8  H   LIG    1        2.589  -0.262  -3.127  0.00  0.00    +0.210 HD
ENDBRANCH   2   7
BRANCH   3   9
ATOM      9  O   LIG    1        4.790   1.855  -2.064  0.00  0.00    -0.383 OA
ATOM     10  H   LIG    1        4.324   2.679  -2.224  0.00  0.00    +0.210 HD
ENDBRANCH   3   9
BRANCH   1  11
ATOM     11  O   LIG    1        0.171   0.379  -1.124  0.00  0.00    -0.340 OA
BRANCH  11  14
ATOM     12  C   LIG    1       -2.681   2.774  -1.488  0.00  0.00    +0.186 C 
ATOM     13  C   LIG    1       -1.758   1.560  -1.800  0.00  0.00    +0.202 C 
ATOM     14  C   LIG    1       -0.502   1.592  -0.915  0.00  0.00    +0.282 C 
ATOM     15  O   LIG    1       -0.893   1.687   0.427  0.00  0.00    -0.341 OA
ATOM     16  C   LIG    1       -1.484   2.943   0.765  0.00  0.00    +0.178 C 
ATOM     17  C   LIG    1       -2.843   3.059   0.029  0.00  0.00    +0.177 C 
BRANCH  13  18
ATOM     18  O   LIG    1       -1.373   1.568  -3.163  0.00  0.00    -0.384 OA
ATOM     19  H   LIG    1       -0.875   0.766  -3.341  0.00  0.00    +0.210 HD
ENDBRANCH  13  18
BRANCH  17  20
ATOM     20  O   LIG    1       -3.428   4.334   0.217  0.00  0.00    -0.386 OA
ATOM     21  H   LIG    1       -4.313   4.321  -0.158  0.00  0.00    +0.210 HD
ENDBRANCH  17  20
BRANCH  12  22
ATOM     22  O   LIG    1       -3.952   2.786  -2.165  0.00  0.00    -0.340 OA
BRANCH  22  23
ATOM     23  C   LIG    1       -4.838   1.691  -2.132  0.00  0.00    +0.282 C 
ATOM     24  C   LIG    1       -4.713   0.892  -3.443  0.00  0.00    +0.201 C 
ATOM     25  C   LIG    1       -5.714  -0.288  -3.435  0.00  0.00    +0.179 C 
ATOM     26  C   LIG    1       -5.588  -1.116  -2.136  0.00  0.00    +0.177 C 
ATOM     27  C   LIG    1       -5.617  -0.189  -0.893  0.00  0.00    +0.178 C 
ATOM     28  O   LIG    1       -4.644   0.851  -1.023  0.00  0.00    -0.341 OA
BRANCH  24  29
ATOM     29  O   LIG    1       -4.912   1.726  -4.572  0.00  0.00    -0.384 OA
ATOM     30  H   LIG    1       -4.207   2.378  -4.593  0.00  0.00    +0.210 HD
ENDBRANCH  24  29
BRANCH  25  31
ATOM     31  O   LIG    1       -5.560  -1.102  -4.585  0.00  0.00    -0.386 OA
ATOM     32  H   LIG    1       -5.379  -0.531  -5.336  0.00  0.00    +0.210 HD
ENDBRANCH  25  31
BRANCH  26  33
ATOM     33  O   LIG    1       -6.591  -2.116  -2.058  0.00  0.00    -0.386 OA
ATOM     34  H   LIG    1       -7.446  -1.705  -2.203  0.00  0.00    +0.210 HD
ENDBRANCH  26  33
BRANCH  27  35
ATOM     35  C   LIG    1       -5.361  -0.916   0.447  0.00  0.00    +0.190 C 
BRANCH  35  36
ATOM     36  O   LIG    1       -4.097  -1.551   0.476  0.00  0.00    -0.392 OA
ATOM     37  H   LIG    1       -4.002  -2.008   1.314  0.00  0.00    +0.210 HD
ENDBRANCH  35  36
ENDBRANCH  27  35
ENDBRANCH  22  23
ENDBRANCH  12  22
BRANCH  16  38
ATOM     38  C   LIG    1       -1.589   2.978   2.306  0.00  0.00    +0.190 C 
BRANCH  38  39
ATOM     39  O   LIG    1       -1.875   4.274   2.792  0.00  0.00    -0.392 OA
ATOM     40  H   LIG    1       -1.917   4.242   3.751  0.00  0.00    +0.210 HD
ENDBRANCH  38  39
ENDBRANCH  16  38
ENDBRANCH  11  14
ENDBRANCH   1  11
BRANCH   4  41
ATOM     41  O   LIG    1        5.410   1.235   0.575  0.00  0.00    -0.460 OA
BRANCH  41  42
ATOM     42  C   LIG    1        5.885   1.787   1.753  0.00  0.00    +0.131 A 
ATOM     43  C   LIG    1        7.283   1.823   1.935  0.00  0.00    +0.043 A 
ATOM     44  C   LIG    1        8.283   1.272   0.904  0.00  0.00    +0.056 C 
ATOM     45  C   LIG    1        8.014  -0.134   0.349  0.00  0.00    -0.019 C 
ATOM     46  C   LIG    1        8.972  -0.953  -0.145  0.00  0.00    -0.076 C 
ATOM     47  C   LIG    1        8.637  -2.329  -0.693  0.00  0.00    +0.039 C 
ATOM     48  C   LIG    1       10.459  -0.580  -0.108  0.00  0.00    +0.030 C 
ATOM     49  C   LIG    1       10.694   0.889   0.318  0.00  0.00    +0.012 C 
ATOM     50  C   LIG    1        9.735   1.288   1.463  0.00  0.00    +0.044 C 
ATOM     51  C   LIG    1       10.041   2.621   2.213  0.00  0.00    +0.109 C 
ATOM     52  C   LIG    1       11.429   2.565   2.884  0.00  0.00    +0.055 C 
ATOM     53  C   LIG    1        9.860   3.880   1.327  0.00  0.00    +0.055 C 
ATOM     54  O   LIG    1        9.133   2.665   3.327  0.00  0.00    -0.486 OA
ATOM     55  C   LIG    1        7.784   2.499   3.068  0.00  0.00    +0.129 A 
ATOM     56  C   LIG    1        6.935   3.031   4.034  0.00  0.00    +0.049 A 
ATOM     57  C   LIG    1        5.555   2.940   3.877  0.00  0.00    -0.040 A 
ATOM     58  C   LIG    1        5.037   2.322   2.740  0.00  0.00    +0.050 A 
BRANCH  57  59
ATOM     59  C   LIG    1        4.620   3.535   4.922  0.00  0.00    +0.035 C 
BRANCH  59  60
ATOM     60  C   LIG    1        4.099   4.940   4.558  0.00  0.00    +0.005 C 
BRANCH  60  61
ATOM     61  C   LIG    1        5.197   6.019   4.481  0.00  0.00    +0.000 C 
BRANCH  61  62
ATOM     62  C   LIG    1        4.645   7.421   4.169  0.00  0.00    -0.003 C 
ATOM     63  C   LIG    1        5.745   8.488   4.083  0.00  0.00    +0.004 C 
ENDBRANCH  61  62
ENDBRANCH  60  61
ENDBRANCH  59  60
ENDBRANCH  57  59
ENDBRANCH  41  42
ENDBRANCH   4  41
BRANCH   6  64
ATOM     64  C   LIG    1        1.165  -0.394   1.699  0.00  0.00    +0.190 C 
BRANCH  64  65
ATOM     65  O   LIG    1        1.498  -1.751   1.484  0.00  0.00    -0.392 OA
ATOM     66  H   LIG    1        1.026  -2.288   2.124  0.00  0.00    +0.210 HD
ENDBRANCH  64  65
ENDBRANCH   6  64
TORSDOF 23
