REMARK  Name = DB18393
REMARK                            x       y       z     vdW  Elec       q    Type
REMARK                         _______ _______ _______ _____ _____    ______ ____
ROOT
ATOM      1  C   LIG    1       -0.989   0.868   1.500  0.00  0.00    +0.181 C 
ATOM      2  C   LIG    1       -1.739   1.954   2.299  0.00  0.00    +0.183 C 
ATOM      3  C   LIG    1       -1.524   3.336   1.622  0.00  0.00    +0.205 C 
ATOM      4  C   LIG    1       -0.036   3.618   1.323  0.00  0.00    +0.282 C 
ATOM      5  O   LIG    1        0.562   2.542   0.642  0.00  0.00    -0.340 OA
ATOM      6  C   LIG    1        0.492   1.284   1.325  0.00  0.00    +0.181 C 
ENDROOT
BRANCH   2   7
ATOM      7  O   LIG    1       -3.113   1.561   2.332  0.00  0.00    -0.374 OA
ATOM      8  C   LIG    1       -3.934   2.148   3.330  0.00  0.00    +0.194 C 
ENDBRANCH   2   7
BRANCH   3   9
ATOM      9  O   LIG    1       -2.231   4.440   2.195  0.00  0.00    -0.372 OA
ATOM     10  C   LIG    1       -1.900   4.860   3.514  0.00  0.00    +0.194 C 
ENDBRANCH   3   9
BRANCH   6  11
ATOM     11  C   LIG    1        1.350   0.289   0.523  0.00  0.00    +0.230 C 
BRANCH  11  12
ATOM     12  O   LIG    1        1.536  -0.908   1.261  0.00  0.00    -0.213 OA
BRANCH  12  13
ATOM     13  S   LIG    1        2.310  -2.177   0.501  0.00  0.00    +0.208 S 
ATOM     14  O   LIG    1        3.633  -1.639   0.162  0.00  0.00    -0.118 OA
ATOM     15  O   LIG    1        1.463  -2.473  -0.661  0.00  0.00    -0.118 OA
BRANCH  13  16
ATOM     16  O   LIG    1        2.325  -3.232   1.520  0.00  0.00    -0.231 OA
ATOM     17  H   LIG    1        1.418  -3.533   1.688  0.00  0.00    +0.247 HD
ENDBRANCH  13  16
ENDBRANCH  12  13
ENDBRANCH  11  12
ENDBRANCH   6  11
BRANCH   4  18
ATOM     18  O   LIG    1        0.625   3.929   2.515  0.00  0.00    -0.340 OA
BRANCH  18  19
ATOM     19  C   LIG    1        2.013   4.286   2.476  0.00  0.00    +0.192 C 
ATOM     20  C   LIG    1        2.550   4.198   3.930  0.00  0.00    +0.260 C 
ATOM     21  O   LIG    1        3.912   4.622   3.982  0.00  0.00    -0.331 OA
ATOM     22  C   LIG    1        4.062   5.983   3.688  0.00  0.00    +0.283 C 
ATOM     23  C   LIG    1        3.677   6.254   2.218  0.00  0.00    +0.205 C 
ATOM     24  C   LIG    1        2.256   5.702   1.883  0.00  0.00    +0.183 C 
BRANCH  23  25
ATOM     25  O   LIG    1        3.882   7.620   1.850  0.00  0.00    -0.372 OA
ATOM     26  C   LIG    1        3.116   8.619   2.515  0.00  0.00    +0.194 C 
ENDBRANCH  23  25
BRANCH  24  27
ATOM     27  O   LIG    1        2.073   5.620   0.467  0.00  0.00    -0.374 OA
ATOM     28  C   LIG    1        1.829   6.837  -0.227  0.00  0.00    +0.194 C 
ENDBRANCH  24  27
BRANCH  20  29
ATOM     29  C   LIG    1        2.547   2.741   4.443  0.00  0.00    +0.337 C 
ATOM     30  O   LIG    1        3.551   2.034   4.516  0.00  0.00    -0.248 OA
BRANCH  29  31
ATOM     31  O   LIG    1        1.297   2.337   4.815  0.00  0.00    -0.479 OA
ATOM     32  H   LIG    1        1.291   1.430   5.130  0.00  0.00    +0.295 HD
ENDBRANCH  29  31
ENDBRANCH  20  29
BRANCH  22  33
ATOM     33  O   LIG    1        5.368   6.435   3.949  0.00  0.00    -0.340 OA
BRANCH  33  34
ATOM     34  C   LIG    1        6.480   5.675   3.452  0.00  0.00    +0.186 C 
ATOM     35  C   LIG    1        7.434   6.580   2.643  0.00  0.00    +0.219 C 
ATOM     36  C   LIG    1        8.698   5.789   2.235  0.00  0.00    +0.241 C 
ATOM     37  C   LIG    1        9.343   5.127   3.463  0.00  0.00    +0.285 C 
ATOM     38  O   LIG    1        8.408   4.338   4.156  0.00  0.00    -0.340 OA
ATOM     39  C   LIG    1        7.264   5.055   4.639  0.00  0.00    +0.181 C 
BRANCH  39  40
ATOM     40  C   LIG    1        6.436   4.082   5.495  0.00  0.00    +0.230 C 
BRANCH  40  41
ATOM     41  O   LIG    1        7.221   3.609   6.580  0.00  0.00    -0.213 OA
BRANCH  41  42
ATOM     42  S   LIG    1        6.641   2.300   7.439  0.00  0.00    +0.208 S 
ATOM     43  O   LIG    1        5.315   2.728   7.901  0.00  0.00    -0.118 OA
ATOM     44  O   LIG    1        7.629   2.126   8.509  0.00  0.00    -0.118 OA
BRANCH  42  45
ATOM     45  O   LIG    1        6.615   1.209   6.457  0.00  0.00    -0.231 OA
ATOM     46  H   LIG    1        7.523   0.983   6.201  0.00  0.00    +0.247 HD
ENDBRANCH  42  45
ENDBRANCH  41  42
ENDBRANCH  40  41
ENDBRANCH  39  40
BRANCH  35  47
ATOM     47  O   LIG    1        6.766   7.081   1.488  0.00  0.00    -0.207 OA
BRANCH  47  48
ATOM     48  S   LIG    1        6.818   8.726   1.174  0.00  0.00    +0.208 S 
ATOM     49  O   LIG    1        8.234   9.011   0.922  0.00  0.00    -0.118 OA
ATOM     50  O   LIG    1        6.293   9.347   2.397  0.00  0.00    -0.118 OA
BRANCH  48  51
ATOM     51  O   LIG    1        5.953   8.881  -0.001  0.00  0.00    -0.231 OA
ATOM     52  H   LIG    1        5.036   8.676   0.244  0.00  0.00    +0.247 HD
ENDBRANCH  48  51
ENDBRANCH  47  48
ENDBRANCH  35  47
BRANCH  36  53
ATOM     53  O   LIG    1        9.646   6.633   1.590  0.00  0.00    -0.205 OA
BRANCH  53  54
ATOM     54  S   LIG    1       10.474   6.040   0.264  0.00  0.00    +0.208 S 
ATOM     55  O   LIG    1        9.425   5.783  -0.730  0.00  0.00    -0.118 OA
ATOM     56  O   LIG    1       11.139   4.830   0.762  0.00  0.00    -0.118 OA
BRANCH  54  57
ATOM     57  O   LIG    1       11.389   7.130  -0.089  0.00  0.00    -0.231 OA
ATOM     58  H   LIG    1       12.050   7.238   0.613  0.00  0.00    +0.247 HD
ENDBRANCH  54  57
ENDBRANCH  53  54
ENDBRANCH  36  53
BRANCH  37  59
ATOM     59  O   LIG    1        9.898   6.134   4.261  0.00  0.00    -0.340 OA
BRANCH  59  60
ATOM     60  C   LIG    1       10.667   5.740   5.401  0.00  0.00    +0.192 C 
ATOM     61  C   LIG    1       10.302   6.586   6.663  0.00  0.00    +0.260 C 
ATOM     62  O   LIG    1       11.275   6.460   7.717  0.00  0.00    -0.331 OA
ATOM     63  C   LIG    1       12.621   6.691   7.370  0.00  0.00    +0.283 C 
ATOM     64  C   LIG    1       13.063   5.664   6.319  0.00  0.00    +0.205 C 
ATOM     65  C   LIG    1       12.175   5.832   5.061  0.00  0.00    +0.183 C 
BRANCH  64  66
ATOM     66  O   LIG    1       14.425   5.862   5.935  0.00  0.00    -0.372 OA
ATOM     67  C   LIG    1       15.395   5.094   6.636  0.00  0.00    +0.194 C 
ENDBRANCH  64  66
BRANCH  65  68
ATOM     68  O   LIG    1       12.556   4.985   3.971  0.00  0.00    -0.374 OA
ATOM     69  C   LIG    1       12.609   3.581   4.204  0.00  0.00    +0.194 C 
ENDBRANCH  65  68
BRANCH  61  70
ATOM     70  C   LIG    1       10.000   8.090   6.407  0.00  0.00    +0.337 C 
ATOM     71  O   LIG    1       10.631   9.018   6.912  0.00  0.00    -0.248 OA
BRANCH  70  72
ATOM     72  O   LIG    1        8.902   8.267   5.615  0.00  0.00    -0.479 OA
ATOM     73  H   LIG    1        8.703   9.192   5.456  0.00  0.00    +0.295 HD
ENDBRANCH  70  72
ENDBRANCH  61  70
BRANCH  63  74
ATOM     74  O   LIG    1       13.429   6.524   8.494  0.00  0.00    -0.340 OA
BRANCH  74  75
ATOM     75  C   LIG    1       13.442   7.590   9.447  0.00  0.00    +0.184 C 
ATOM     76  C   LIG    1       12.979   7.058  10.822  0.00  0.00    +0.185 C 
ATOM     77  C   LIG    1       13.241   8.088  11.950  0.00  0.00    +0.239 C 
ATOM     78  C   LIG    1       14.688   8.610  11.883  0.00  0.00    +0.284 C 
ATOM     79  O   LIG    1       14.979   9.106  10.597  0.00  0.00    -0.340 OA
ATOM     80  C   LIG    1       14.886   8.131   9.551  0.00  0.00    +0.181 C 
BRANCH  76  81
ATOM     81  O   LIG    1       11.645   6.539  10.799  0.00  0.00    -0.374 OA
ATOM     82  C   LIG    1       10.572   7.463  10.651  0.00  0.00    +0.194 C 
ENDBRANCH  76  81
BRANCH  78  83
ATOM     83  O   LIG    1       15.556   7.588  12.283  0.00  0.00    -0.352 OA
ATOM     84  C   LIG    1       16.915   7.982  12.428  0.00  0.00    +0.197 C 
ENDBRANCH  78  83
BRANCH  80  85
ATOM     85  C   LIG    1       15.371   8.782   8.239  0.00  0.00    +0.230 C 
BRANCH  85  86
ATOM     86  O   LIG    1       16.729   9.194   8.347  0.00  0.00    -0.213 OA
BRANCH  86  87
ATOM     87  S   LIG    1       17.922   8.175   7.765  0.00  0.00    +0.208 S 
ATOM     88  O   LIG    1       17.621   8.051   6.334  0.00  0.00    -0.118 OA
ATOM     89  O   LIG    1       17.749   6.933   8.526  0.00  0.00    -0.118 OA
BRANCH  87  90
ATOM     90  O   LIG    1       19.164   8.897   8.060  0.00  0.00    -0.231 OA
ATOM     91  H   LIG    1       19.294   8.938   9.020  0.00  0.00    +0.247 HD
ENDBRANCH  87  90
ENDBRANCH  86  87
ENDBRANCH  85  86
ENDBRANCH  80  85
BRANCH  77  92
ATOM     92  O   LIG    1       12.957   7.495  13.217  0.00  0.00    -0.205 OA
BRANCH  92  93
ATOM     93  S   LIG    1       12.364   8.455  14.453  0.00  0.00    +0.208 S 
ATOM     94  O   LIG    1       13.403   9.469  14.661  0.00  0.00    -0.118 OA
ATOM     95  O   LIG    1       12.204   7.517  15.570  0.00  0.00    -0.118 OA
BRANCH  93  96
ATOM     96  O   LIG    1       11.101   8.988  13.928  0.00  0.00    -0.231 OA
ATOM     97  H   LIG    1       10.466   8.263  13.817  0.00  0.00    +0.247 HD
ENDBRANCH  93  96
ENDBRANCH  92  93
ENDBRANCH  77  92
ENDBRANCH  74  75
ENDBRANCH  63  74
ENDBRANCH  59  60
ENDBRANCH  37  59
ENDBRANCH  33  34
ENDBRANCH  22  33
ENDBRANCH  18  19
ENDBRANCH   4  18
BRANCH   1  98
ATOM     98  O   LIG    1       -1.121  -0.387   2.177  0.00  0.00    -0.369 OA
BRANCH  98  99
ATOM     99  C   LIG    1       -1.455  -1.522   1.371  0.00  0.00    +0.188 C 
BRANCH  99 100
ATOM    100  C   LIG    1       -2.970  -1.695   1.149  0.00  0.00    +0.188 C 
BRANCH 100 101
ATOM    101  O   LIG    1       -3.511  -0.546   0.518  0.00  0.00    -0.375 OA
BRANCH 101 102
ATOM    102  C   LIG    1       -4.863  -0.663   0.097  0.00  0.00    +0.188 C 
BRANCH 102 103
ATOM    103  C   LIG    1       -5.417   0.746  -0.146  0.00  0.00    +0.188 C 
BRANCH 103 104
ATOM    104  O   LIG    1       -4.543   1.453  -1.018  0.00  0.00    -0.375 OA
BRANCH 104 105
ATOM    105  C   LIG    1       -4.492   2.853  -0.784  0.00  0.00    +0.188 C 
BRANCH 105 106
ATOM    106  C   LIG    1       -3.429   3.470  -1.702  0.00  0.00    +0.188 C 
BRANCH 106 107
ATOM    107  O   LIG    1       -3.081   4.748  -1.193  0.00  0.00    -0.376 OA
BRANCH 107 108
ATOM    108  C   LIG    1       -2.070   5.420  -1.934  0.00  0.00    +0.178 C 
BRANCH 108 109
ATOM    109  C   LIG    1       -1.736   6.771  -1.274  0.00  0.00    +0.132 C 
BRANCH 109 111
ATOM    110  C   LIG    1       -3.689   7.581   0.040  0.00  0.00    +0.233 C 
ATOM    111  N   LIG    1       -2.924   7.601  -1.065  0.00  0.00    -0.312 N 
ATOM    112  H   LIG    1       -3.207   8.184  -1.840  0.00  0.00    +0.149 HD
ATOM    113  O   LIG    1       -3.427   6.939   1.058  0.00  0.00    -0.274 OA
BRANCH 110 114
ATOM    114  C   LIG    1       -4.974   8.427  -0.007  0.00  0.00    +0.159 C 
BRANCH 114 115
ATOM    115  N   LIG    1       -6.122   7.637   0.442  0.00  0.00    -0.304 N 
ATOM    116  H   LIG    1       -6.451   7.839   1.375  0.00  0.00    +0.149 HD
ATOM    117  C   LIG    1       -6.693   6.635  -0.250  0.00  0.00    +0.214 C 
ATOM    118  O   LIG    1       -6.347   6.314  -1.388  0.00  0.00    -0.276 OA
BRANCH 117 119
ATOM    119  C   LIG    1       -7.808   5.858   0.466  0.00  0.00    +0.097 C 
BRANCH 119 120
ATOM    120  C   LIG    1       -9.076   5.645  -0.386  0.00  0.00    +0.028 C 
BRANCH 120 121
ATOM    121  C   LIG    1       -9.936   6.909  -0.602  0.00  0.00    +0.104 C 
BRANCH 121 122
ATOM    122  N   LIG    1      -11.087   6.671  -1.470  0.00  0.00    -0.315 N 
ATOM    123  H   LIG    1      -11.019   7.030  -2.412  0.00  0.00    +0.149 HD
ATOM    124  C   LIG    1      -12.189   5.983  -1.118  0.00  0.00    +0.215 C 
ATOM    125  O   LIG    1      -12.381   5.545   0.017  0.00  0.00    -0.276 OA
BRANCH 124 126
ATOM    126  C   LIG    1      -13.222   5.713  -2.225  0.00  0.00    +0.125 C 
BRANCH 126 127
ATOM    127  C   LIG    1      -12.661   5.032  -3.508  0.00  0.00    +0.171 C 
BRANCH 127 128
ATOM    128  C   LIG    1      -12.122   3.595  -3.281  0.00  0.00    +0.233 C 
ATOM    129  N   LIG    1      -10.889   3.522  -2.755  0.00  0.00    -0.302 N 
ATOM    130  H   LIG    1      -10.401   4.379  -2.535  0.00  0.00    +0.150 HD
ATOM    131  O   LIG    1      -12.775   2.591  -3.579  0.00  0.00    -0.274 OA
BRANCH 129 132
ATOM    132  C   LIG    1      -10.152   2.296  -2.455  0.00  0.00    +0.163 C 
BRANCH 132 133
ATOM    133  C   LIG    1       -8.636   2.621  -2.543  0.00  0.00    +0.236 C 
ATOM    134  N   LIG    1       -8.080   2.886  -3.758  0.00  0.00    -0.300 N 
ATOM    135  C   LIG    1       -6.628   3.086  -3.891  0.00  0.00    +0.108 C 
ATOM    136  C   LIG    1       -6.025   1.723  -4.306  0.00  0.00    +0.019 C 
ATOM    137  C   LIG    1       -6.687   1.169  -5.588  0.00  0.00    +0.003 C 
ATOM    138  C   LIG    1       -8.230   1.215  -5.510  0.00  0.00    +0.019 C 
ATOM    139  C   LIG    1       -8.743   2.596  -5.040  0.00  0.00    +0.108 C 
ATOM    140  O   LIG    1       -7.993   2.669  -1.492  0.00  0.00    -0.274 OA
ENDBRANCH 132 133
BRANCH 132 141
ATOM    141  C   LIG    1      -10.623   1.661  -1.112  0.00  0.00    +0.067 C 
BRANCH 141 142
ATOM    142  C   LIG    1       -9.914   0.351  -0.763  0.00  0.00    -0.045 A 
ATOM    143  C   LIG    1       -9.182   0.249   0.418  0.00  0.00    +0.004 A 
ATOM    144  C   LIG    1       -8.522  -0.935   0.734  0.00  0.00    +0.016 A 
ATOM    145  C   LIG    1       -8.568  -2.054  -0.122  0.00  0.00    +0.065 A 
ATOM    146  C   LIG    1       -9.324  -1.927  -1.303  0.00  0.00    +0.016 A 
ATOM    147  C   LIG    1       -9.992  -0.747  -1.619  0.00  0.00    +0.004 A 
BRANCH 145 148
ATOM    148  C   LIG    1       -7.852  -3.330   0.191  0.00  0.00    +0.308 C 
ATOM    149  N   LIG    1       -7.885  -4.307  -0.612  0.00  0.00    -0.099 NA
ATOM    150  H   LIG    1       -7.359  -5.104  -0.281  0.00  0.00    +0.363 HD
BRANCH 148 151
ATOM    151  N   LIG    1       -7.178  -3.329   1.394  0.00  0.00    -0.247 N 
ATOM    152  H   LIG    1       -7.193  -2.515   1.990  0.00  0.00    +0.288 HD
ATOM    153  H   LIG    1       -6.657  -4.142   1.692  0.00  0.00    +0.288 HD
ENDBRANCH 148 151
ENDBRANCH 145 148
ENDBRANCH 141 142
ENDBRANCH 132 141
ENDBRANCH 129 132
ENDBRANCH 127 128
BRANCH 127 154
ATOM    154  N   LIG    1      -13.738   4.952  -4.524  0.00  0.00    -0.178 NA
ATOM    155  H   LIG    1      -14.164   4.026  -4.610  0.00  0.00    +0.149 HD
BRANCH 154 156
ATOM    156  S   LIG    1      -13.517   5.794  -6.056  0.00  0.00    +0.060 S 
ATOM    157  O   LIG    1      -13.235   7.195  -5.729  0.00  0.00    -0.153 OA
ATOM    158  O   LIG    1      -14.673   5.479  -6.904  0.00  0.00    -0.153 OA
BRANCH 156 159
ATOM    159  C   LIG    1      -12.049   5.000  -6.819  0.00  0.00    +0.112 A 
ATOM    160  C   LIG    1      -12.145   3.667  -7.301  0.00  0.00    -0.018 A 
ATOM    161  C   LIG    1      -13.435   2.850  -7.143  0.00  0.00    +0.046 C 
ATOM    162  C   LIG    1      -11.034   3.054  -7.922  0.00  0.00    -0.004 A 
ATOM    163  C   LIG    1      -11.138   1.634  -8.489  0.00  0.00    +0.048 C 
ATOM    164  C   LIG    1       -9.818   3.739  -8.041  0.00  0.00    +0.124 A 
ATOM    165  C   LIG    1       -9.728   5.041  -7.544  0.00  0.00    +0.051 A 
ATOM    166  C   LIG    1      -10.812   5.676  -6.939  0.00  0.00    -0.020 A 
ATOM    167  C   LIG    1      -10.556   7.091  -6.431  0.00  0.00    +0.046 C 
BRANCH 164 168
ATOM    168  O   LIG    1       -8.750   3.079  -8.627  0.00  0.00    -0.495 OA
ATOM    169  C   LIG    1       -7.480   3.717  -8.715  0.00  0.00    +0.277 C 
ENDBRANCH 164 168
ENDBRANCH 156 159
ENDBRANCH 154 156
ENDBRANCH 127 154
ENDBRANCH 126 127
ENDBRANCH 124 126
ENDBRANCH 121 122
ENDBRANCH 120 121
ENDBRANCH 119 120
ENDBRANCH 117 119
ENDBRANCH 114 115
BRANCH 114 170
ATOM    170  C   LIG    1       -4.844   9.726   0.820  0.00  0.00    +0.032 C 
BRANCH 170 171
ATOM    171  C   LIG    1       -3.653  10.631   0.430  0.00  0.00    +0.004 C 
BRANCH 171 172
ATOM    172  C   LIG    1       -3.689  12.030   1.075  0.00  0.00    +0.019 C 
BRANCH 172 173
ATOM    173  C   LIG    1       -3.533  12.023   2.611  0.00  0.00    +0.104 C 
BRANCH 173 175
ATOM    174  C   LIG    1       -4.553  14.159   3.387  0.00  0.00    +0.213 C 
ATOM    175  N   LIG    1       -3.487  13.359   3.204  0.00  0.00    -0.315 N 
ATOM    176  H   LIG    1       -2.580  13.688   3.499  0.00  0.00    +0.149 HD
ATOM    177  O   LIG    1       -5.699  13.842   3.064  0.00  0.00    -0.276 OA
BRANCH 174 178
ATOM    178  C   LIG    1       -4.261  15.528   4.024  0.00  0.00    +0.096 C 
BRANCH 178 179
ATOM    179  C   LIG    1       -5.512  16.264   4.559  0.00  0.00    +0.009 C 
BRANCH 179 180
ATOM    180  C   LIG    1       -5.198  17.558   5.335  0.00  0.00    +0.002 C 
BRANCH 180 181
ATOM    181  C   LIG    1       -4.573  18.677   4.475  0.00  0.00    +0.016 C 
BRANCH 181 190
ATOM    182  C   LIG    1       -3.937  22.459   4.834  0.00  0.00    +0.105 C 
ATOM    183  N   LIG    1       -4.383  22.990   3.561  0.00  0.00    -0.294 N 
ATOM    184  H   LIG    1       -4.499  23.986   3.443  0.00  0.00    +0.151 HD
ATOM    185  C   LIG    1       -4.286  22.154   2.516  0.00  0.00    +0.300 C 
ATOM    186  O   LIG    1       -4.838  22.252   1.424  0.00  0.00    -0.253 OA
ATOM    187  N   LIG    1       -3.637  21.092   3.021  0.00  0.00    -0.294 N 
ATOM    188  H   LIG    1       -3.114  20.457   2.434  0.00  0.00    +0.151 HD
ATOM    189  C   LIG    1       -3.470  21.053   4.465  0.00  0.00    +0.108 C 
ATOM    190  C   LIG    1       -4.303  19.993   5.243  0.00  0.00    +0.069 C 
ATOM    191  S   LIG    1       -5.850  20.826   5.694  0.00  0.00    -0.154 S 
ATOM    192  C   LIG    1       -4.989  22.386   5.949  0.00  0.00    +0.093 C 
ENDBRANCH 181 190
ENDBRANCH 180 181
ENDBRANCH 179 180
ENDBRANCH 178 179
ENDBRANCH 174 178
ENDBRANCH 173 175
ENDBRANCH 172 173
ENDBRANCH 171 172
ENDBRANCH 170 171
ENDBRANCH 114 170
ENDBRANCH 110 114
ENDBRANCH 109 111
ENDBRANCH 108 109
ENDBRANCH 107 108
ENDBRANCH 106 107
ENDBRANCH 105 106
ENDBRANCH 104 105
ENDBRANCH 103 104
ENDBRANCH 102 103
ENDBRANCH 101 102
ENDBRANCH 100 101
ENDBRANCH  99 100
ENDBRANCH  98  99
ENDBRANCH   1  98
TORSDOF 83
