REMARK  Name = DB18267
REMARK                            x       y       z     vdW  Elec       q    Type
REMARK                         _______ _______ _______ _____ _____    ______ ____
ROOT
ATOM      1  C   LIG    1       -0.407   2.553  -0.061  0.00  0.00    +0.046 C 
ATOM      2  C   LIG    1       -0.858   1.101  -0.135  0.00  0.00    -0.022 A 
ATOM      3  C   LIG    1       -2.160   0.635  -0.207  0.00  0.00    +0.045 A 
ATOM      4  N   LIG    1       -2.140  -0.719  -0.206  0.00  0.00    -0.355 N 
ATOM      5  H   LIG    1       -2.945  -1.321  -0.281  0.00  0.00    +0.166 HD
ATOM      6  C   LIG    1       -0.846  -1.119  -0.250  0.00  0.00    +0.045 A 
ATOM      7  C   LIG    1       -0.395  -2.441  -0.412  0.00  0.00    +0.051 C 
ATOM      8  C   LIG    1       -1.163  -3.608  -0.453  0.00  0.00    +0.045 A 
ATOM      9  C   LIG    1       -0.810  -4.879  -0.880  0.00  0.00    -0.019 A 
ATOM     10  C   LIG    1       -1.949  -5.663  -0.800  0.00  0.00    -0.022 A 
ATOM     11  C   LIG    1       -2.080  -7.116  -1.221  0.00  0.00    +0.046 C 
ATOM     12  C   LIG    1       -2.937  -4.869  -0.253  0.00  0.00    +0.045 A 
ATOM     13  C   LIG    1       -4.293  -5.124  -0.011  0.00  0.00    +0.051 C 
ATOM     14  C   LIG    1       -5.064  -4.216   0.711  0.00  0.00    +0.045 A 
ATOM     15  N   LIG    1       -6.208  -3.735   0.198  0.00  0.00    -0.354 N 
ATOM     16  H   LIG    1       -6.608  -4.012  -0.687  0.00  0.00    +0.166 HD
ATOM     17  C   LIG    1       -6.322  -2.518   0.757  0.00  0.00    +0.049 A 
ATOM     18  C   LIG    1       -6.983  -1.507   0.062  0.00  0.00    +0.052 C 
ATOM     19  C   LIG    1       -6.356  -0.276  -0.172  0.00  0.00    +0.045 A 
ATOM     20  C   LIG    1       -6.844   0.914  -0.679  0.00  0.00    -0.018 A 
ATOM     21  C   LIG    1       -8.293   1.171  -1.060  0.00  0.00    +0.046 C 
ATOM     22  C   LIG    1       -5.764   1.789  -0.754  0.00  0.00    +0.003 A 
ATOM     23  C   LIG    1       -4.643   1.063  -0.370  0.00  0.00    +0.049 A 
ATOM     24  N   LIG    1       -5.026  -0.159   0.013  0.00  0.00    -0.354 N 
ATOM     25  H   LIG    1       -4.413  -0.887   0.349  0.00  0.00    +0.166 HD
ATOM     26  C   LIG    1       -5.554  -2.437   1.913  0.00  0.00    +0.003 A 
ATOM     27  C   LIG    1       -4.739  -3.540   1.877  0.00  0.00    -0.018 A 
ATOM     28  C   LIG    1       -3.634  -3.873   2.869  0.00  0.00    +0.046 C 
ATOM     29  N   LIG    1       -2.435  -3.635  -0.043  0.00  0.00    -0.355 N 
ATOM     30  H   LIG    1       -2.949  -2.848   0.324  0.00  0.00    +0.166 HD
ATOM     31  C   LIG    1       -3.297   1.450  -0.332  0.00  0.00    +0.052 C 
ATOM     32  C   LIG    1       -0.030  -0.002  -0.180  0.00  0.00    -0.019 A 
ENDROOT
BRANCH  22  33
ATOM     33  C   LIG    1       -5.731   3.205  -1.185  0.00  0.00    +0.002 C 
ATOM     34  C   LIG    1       -6.774   4.046  -1.290  0.00  0.00    +0.009 C 
ENDBRANCH  22  33
BRANCH  26  35
ATOM     35  C   LIG    1       -5.495  -1.390   2.958  0.00  0.00    +0.002 C 
ATOM     36  C   LIG    1       -6.401  -0.419   3.159  0.00  0.00    +0.009 C 
ENDBRANCH  26  35
BRANCH   9  37
ATOM     37  C   LIG    1        0.546  -5.333  -1.397  0.00  0.00    +0.048 C 
BRANCH  37  38
ATOM     38  C   LIG    1        1.430  -5.929  -0.271  0.00  0.00    +0.125 C 
BRANCH  38  39
ATOM     39  C   LIG    1        2.763  -6.557  -0.745  0.00  0.00    +0.305 C 
ATOM     40  O   LIG    1        3.413  -7.182   0.122  0.00  0.00    -0.251 OA
BRANCH  39  41
ATOM     41  O   LIG    1        3.134  -6.418  -1.933  0.00  0.00    -0.481 OA
ATOM     42  H   LIG    1        3.941  -6.798  -2.220  0.00  0.00    +0.295 HD
ENDBRANCH  39  41
ENDBRANCH  38  39
ENDBRANCH  37  38
ENDBRANCH   9  37
BRANCH  32  43
ATOM     43  C   LIG    1        1.494   0.029  -0.168  0.00  0.00    +0.048 C 
BRANCH  43  44
ATOM     44  C   LIG    1        2.067  -0.199   1.254  0.00  0.00    +0.125 C 
BRANCH  44  45
ATOM     45  C   LIG    1        3.610  -0.128   1.365  0.00  0.00    +0.305 C 
ATOM     46  O   LIG    1        4.081  -0.269   2.516  0.00  0.00    -0.251 OA
BRANCH  45  47
ATOM     47  O   LIG    1        4.306   0.061   0.342  0.00  0.00    -0.481 OA
ATOM     48  H   LIG    1        5.240   0.104   0.411  0.00  0.00    +0.295 HD
ENDBRANCH  45  47
ENDBRANCH  44  45
ENDBRANCH  43  44
ENDBRANCH  32  43
TORSDOF 10
